
*****
***** Welcome to the Xyce(TM) Parallel Electronic Simulator
*****
***** This is version Xyce Release 6.11.1-opensource
***** Date: Sat Nov 16 01:12:46 UTC 2019


***** Executing netlist five_transistor_ota.cir

***** Reading and parsing netlist...
***** Setting up topology...

Netlist warning: Voltage Node (ID_M2_400_252) connected to only 1 device
 Terminal
Netlist warning: Voltage Node (ID_M2_480_252) connected to only 1 device
 Terminal
Netlist warning: Voltage Node (VSS_M2_960_420) connected to only 1 device
 Terminal
Netlist warning: Voltage Node (VSS_M2_960_168) connected to only 1 device
 Terminal
Netlist warning: Voltage Node (NET10_M2_1120_336) connected to only 1 device
 Terminal
Netlist warning: Voltage Node (NET10_M2_2320_168) connected to only 1 device
 Terminal
Netlist warning: Voltage Node (VDD_M2_3040_420) connected to only 1 device
 Terminal
Netlist warning: Voltage Node (VOUT_M2_3200_252) connected to only 1 device
 Terminal
Netlist warning: Voltage Node (VDD_M2_3200_420) connected to only 1 device
 Terminal
Netlist warning: Voltage Node (VOUT_M2_2960_252) connected to only 1 device
 Terminal
Netlist warning: Voltage Node (VINP_M2_1760_420) connected to only 1 device
 Terminal
Netlist warning: Voltage Node (VOUT_M2_2400_252) connected to only 1 device
 Terminal
Netlist warning: Voltage Node (VINP_M2_1920_420) connected to only 1 device
 Terminal
Netlist warning: Voltage Node (VOUT_M2_3040_252) connected to only 1 device
 Terminal
Netlist warning: Voltage Node (VSS_M2_800_168) connected to only 1 device
 Terminal
Netlist warning: Voltage Node (VOUT_M2_2640_252) connected to only 1 device
 Terminal
Netlist warning: Voltage Node (VDD_M2_3280_420) connected to only 1 device
 Terminal
Netlist warning: Voltage Node (VINP_M2_1360_252) connected to only 1 device
 Terminal
Netlist warning: Voltage Node (VINP_M2_1600_252) connected to only 1 device
 Terminal
Netlist warning: Voltage Node (NET10_M2_1280_168) connected to only 1 device
 Terminal
Netlist warning: Voltage Node (NET10_M2_960_336) connected to only 1 device
 Terminal
Netlist warning: Voltage Node (NET10_M2_720_588) connected to only 1 device
 Terminal
Netlist warning: Voltage Node (NET10_M2_960_588) connected to only 1 device
 Terminal
Netlist warning: Voltage Node (VSS_M2_560_420) connected to only 1 device
 Terminal
Netlist warning: Voltage Node (NET10_M2_720_336) connected to only 1 device
 Terminal
Netlist warning: Voltage Node (ID_M2_880_252) connected to only 1 device
 Terminal
Netlist warning: Voltage Node (VSS_M2_320_168) connected to only 1 device
 Terminal
Netlist warning: Voltage Node (NET10_M2_1680_168) connected to only 1 device
 Terminal
Netlist warning: Voltage Node (ID_M2_640_252) connected to only 1 device
 Terminal
Netlist warning: Voltage Node (VSS_M2_320_420) connected to only 1 device
 Terminal
Netlist warning: Voltage Node (VSS_M2_800_420) connected to only 1 device
 Terminal
Netlist warning: Voltage Node (ID_M2_1040_252) connected to only 1 device
 Terminal
Netlist warning: Voltage Node (VSS_M2_560_168) connected to only 1 device
 Terminal
Netlist warning: Voltage Node (NET8_M1_3840_132) does not have a DC path to
 ground
Netlist warning: Voltage Node (NET8_M1_3840_252) does not have a DC path to
 ground
Netlist warning: Voltage Node (NET8_M1_3840_420) does not have a DC path to
 ground
Netlist warning: Voltage Node (NET8_M1_3840_248) does not have a DC path to
 ground
Netlist warning: Voltage Node (NET8_M1_3840_408) does not have a DC path to
 ground
Netlist warning: Voltage Node (NET8_M1_3840_568) does not have a DC path to
 ground
Netlist warning: Voltage Node (VDD_M1_3920_168) does not have a DC path to
 ground
Netlist warning: Voltage Node (VDD_M1_3920_336) does not have a DC path to
 ground
Netlist warning: Voltage Node (VDD_M1_3920_542) does not have a DC path to
 ground
Netlist warning: Voltage Node (VDD_M1_3920_668) does not have a DC path to
 ground
Netlist warning: Voltage Node (NET8_M1_3760_132) does not have a DC path to
 ground
Netlist warning: Voltage Node (NET8_M1_3760_252) does not have a DC path to
 ground
Netlist warning: Voltage Node (NET8_M1_3760_332) does not have a DC path to
 ground
Netlist warning: Voltage Node (NET8_M1_3760_416) does not have a DC path to
 ground
Netlist warning: Voltage Node (NET8_M1_3760_588) does not have a DC path to
 ground
Netlist warning: Voltage Node (NET8_M1_3760_792) does not have a DC path to
 ground
Netlist warning: Voltage Node (NET8_M1_3120_132) does not have a DC path to
 ground
Netlist warning: Voltage Node (NET8_M1_3120_212) does not have a DC path to
 ground
Netlist warning: Voltage Node (NET8_M1_3120_292) does not have a DC path to
 ground
Netlist warning: Voltage Node (NET8_M1_3120_336) does not have a DC path to
 ground
Netlist warning: Voltage Node (NET8_M1_3120_576) does not have a DC path to
 ground
Netlist warning: Voltage Node (NET8_M1_3120_588) does not have a DC path to
 ground
Netlist warning: Voltage Node (NET8_M1_3120_648) does not have a DC path to
 ground
Netlist warning: Voltage Node (NET8_M1_3120_792) does not have a DC path to
 ground
Netlist warning: Voltage Node (VDD_M1_3200_168) does not have a DC path to
 ground
Netlist warning: Voltage Node (VDD_M1_3200_420) does not have a DC path to
 ground
Netlist warning: Voltage Node (VDD_M1_3200_588) does not have a DC path to
 ground
Netlist warning: Voltage Node (VDD_M1_3200_668) does not have a DC path to
 ground
Netlist warning: Voltage Node (VDD_M1_3200_748) does not have a DC path to
 ground
Netlist warning: Voltage Node (VDD_M1_3200_792) does not have a DC path to
 ground
Netlist warning: Voltage Node (VOUT_M1_3040_412) does not have a DC path to
 ground
Netlist warning: Voltage Node (VOUT_M1_3040_588) does not have a DC path to
 ground
Netlist warning: Voltage Node (VOUT_M1_3040_668) does not have a DC path to
 ground
Netlist warning: Voltage Node (VOUT_M1_3040_792) does not have a DC path to
 ground
Netlist warning: Voltage Node (ID_M1_400_408) does not have a DC path to
 ground
Netlist warning: Voltage Node (ID_M1_400_792) does not have a DC path to
 ground
Netlist warning: Voltage Node (VSS_M1_320_132) does not have a DC path to
 ground
Netlist warning: Voltage Node (VSS_M1_320_328) does not have a DC path to
 ground
Netlist warning: Voltage Node (VSS_M1_320_420) does not have a DC path to
 ground
Netlist warning: Voltage Node (VSS_M1_320_336) does not have a DC path to
 ground
Netlist warning: Voltage Node (VSS_M1_320_462) does not have a DC path to
 ground
Netlist warning: Voltage Node (VSS_M1_320_588) does not have a DC path to
 ground
Netlist warning: Voltage Node (VSS_M1_320_668) does not have a DC path to
 ground
Netlist warning: Voltage Node (VSS_M1_320_792) does not have a DC path to
 ground
Netlist warning: Voltage Node (ID_M1_480_336) does not have a DC path to
 ground
Netlist warning: Voltage Node (ID_M1_480_416) does not have a DC path to
 ground
Netlist warning: Voltage Node (ID_M1_480_542) does not have a DC path to
 ground
Netlist warning: Voltage Node (ID_M1_400_488) does not have a DC path to
 ground
Netlist warning: Voltage Node (ID_M1_1040_408) does not have a DC path to
 ground
Netlist warning: Voltage Node (ID_M1_1040_568) does not have a DC path to
 ground
Netlist warning: Voltage Node (ID_M1_1040_728) does not have a DC path to
 ground
Netlist warning: Voltage Node (VSS_M1_960_168) does not have a DC path to
 ground
Netlist warning: Voltage Node (VSS_M1_960_328) does not have a DC path to
 ground
Netlist warning: Voltage Node (VSS_M1_960_668) does not have a DC path to
 ground
Netlist warning: Voltage Node (NET10_M1_1120_132) does not have a DC path to
 ground
Netlist warning: Voltage Node (NET10_M1_1120_212) does not have a DC path to
 ground
Netlist warning: Voltage Node (NET10_M1_1120_336) does not have a DC path to
 ground
Netlist warning: Voltage Node (NET10_M1_1120_496) does not have a DC path to
 ground
Netlist warning: Voltage Node (NET10_M1_1120_462) does not have a DC path to
 ground
Netlist warning: Voltage Node (NET10_M1_1120_542) does not have a DC path to
 ground
Netlist warning: Voltage Node (NET10_M1_1120_622) does not have a DC path to
 ground
Netlist warning: Voltage Node (NET10_M1_1120_702) does not have a DC path to
 ground
Netlist warning: Voltage Node (VINP_M1_1760_248) does not have a DC path to
 ground
Netlist warning: Voltage Node (VINP_M1_1760_328) does not have a DC path to
 ground
Netlist warning: Voltage Node (NET10_M1_1680_132) does not have a DC path to
 ground
Netlist warning: Voltage Node (NET10_M1_1680_248) does not have a DC path to
 ground
Netlist warning: Voltage Node (NET10_M1_1680_462) does not have a DC path to
 ground
Netlist warning: Voltage Node (NET8_M1_1840_132) does not have a DC path to
 ground
Netlist warning: Voltage Node (NET8_M1_3760_412) does not have a DC path to
 ground
Netlist warning: Voltage Node (NET8_M1_1840_252) does not have a DC path to
 ground
Netlist warning: Voltage Node (ID_M1_400_568) does not have a DC path to
 ground
Netlist warning: Voltage Node (NET8_M1_1840_332) does not have a DC path to
 ground
Netlist warning: Voltage Node (NET8_M1_1840_336) does not have a DC path to
 ground
Netlist warning: Voltage Node (VSS_M1_320_542) does not have a DC path to
 ground
Netlist warning: Voltage Node (NET8_M1_1840_416) does not have a DC path to
 ground
Netlist warning: Voltage Node (NET8_M1_1840_668) does not have a DC path to
 ground
Netlist warning: Voltage Node (NET8_M1_1840_748) does not have a DC path to
 ground
Netlist warning: Voltage Node (VINN_M1_2400_168) does not have a DC path to
 ground
Netlist warning: Voltage Node (VINN_M1_2400_328) does not have a DC path to
 ground
Netlist warning: Voltage Node (VINN_M1_2400_408) does not have a DC path to
 ground
Netlist warning: Voltage Node (VINN_M1_2400_568) does not have a DC path to
 ground
Netlist warning: Voltage Node (NET10_M1_2320_248) does not have a DC path to
 ground
Netlist warning: Voltage Node (NET10_M1_2320_336) does not have a DC path to
 ground
Netlist warning: Voltage Node (NET10_M1_2320_542) does not have a DC path to
 ground
Netlist warning: Voltage Node (NET10_M1_2320_668) does not have a DC path to
 ground
Netlist warning: Voltage Node (NET10_M1_2320_748) does not have a DC path to
 ground
Netlist warning: Voltage Node (NET10_M1_2320_792) does not have a DC path to
 ground
Netlist warning: Voltage Node (VOUT_M1_2480_212) does not have a DC path to
 ground
Netlist warning: Voltage Node (VOUT_M1_2480_292) does not have a DC path to
 ground
Netlist warning: Voltage Node (VOUT_M1_2480_748) does not have a DC path to
 ground
Netlist warning: Voltage Node (VOUT_M1_2480_792) does not have a DC path to
 ground
Netlist warning: Voltage Node (VSS_M2_284_168) does not have a DC path to
 ground
Netlist warning: Voltage Node (VSS_M2_444_168) does not have a DC path to
 ground
Netlist warning: Voltage Node (VSS_M2_844_168) does not have a DC path to
 ground
Netlist warning: Voltage Node (VSS_M2_1084_168) does not have a DC path to
 ground
Netlist warning: Voltage Node (VSS_M2_1564_168) does not have a DC path to
 ground
Netlist warning: Voltage Node (VSS_M2_1724_168) does not have a DC path to
 ground
Netlist warning: Voltage Node (VSS_M2_1804_168) does not have a DC path to
 ground
Netlist warning: Voltage Node (VSS_M2_2044_168) does not have a DC path to
 ground
Netlist warning: Voltage Node (VSS_M2_2124_168) does not have a DC path to
 ground
Netlist warning: Voltage Node (VSS_M2_2204_168) does not have a DC path to
 ground
Netlist warning: Voltage Node (VSS_M2_2364_168) does not have a DC path to
 ground
Netlist warning: Voltage Node (VSS_M2_2444_168) does not have a DC path to
 ground
Netlist warning: Voltage Node (VSS_M2_2524_168) does not have a DC path to
 ground
Netlist warning: Voltage Node (VSS_M2_2844_168) does not have a DC path to
 ground
Netlist warning: Voltage Node (VSS_M2_2924_168) does not have a DC path to
 ground
Netlist warning: Voltage Node (VSS_M2_3004_168) does not have a DC path to
 ground
Netlist warning: Voltage Node (VSS_M2_3404_168) does not have a DC path to
 ground
Netlist warning: Voltage Node (VSS_M2_3484_168) does not have a DC path to
 ground
Netlist warning: Voltage Node (VSS_M2_3804_168) does not have a DC path to
 ground
Netlist warning: Voltage Node (VSS_M2_3884_168) does not have a DC path to
 ground
Netlist warning: Voltage Node (VSS_M1_960_416) does not have a DC path to
 ground
Netlist warning: Voltage Node (NET10_M2_1484_168) does not have a DC path to
 ground
Netlist warning: Voltage Node (VOUT_M4_2480_252) does not have a DC path to
 ground
Netlist warning: Voltage Node (NET8_M1_3840_332) does not have a DC path to
 ground
Netlist warning: Voltage Node (NET10_M2_1644_168) does not have a DC path to
 ground
Netlist warning: Voltage Node (NET10_M2_1804_168) does not have a DC path to
 ground
Netlist warning: Voltage Node (NET10_M2_1964_168) does not have a DC path to
 ground
Netlist warning: Voltage Node (NET10_M2_2044_168) does not have a DC path to
 ground
Netlist warning: Voltage Node (NET10_M2_2204_168) does not have a DC path to
 ground
Netlist warning: Voltage Node (NET10_M2_2444_168) does not have a DC path to
 ground
Netlist warning: Voltage Node (NET10_M2_2604_168) does not have a DC path to
 ground
Netlist warning: Voltage Node (NET10_M2_2764_168) does not have a DC path to
 ground
Netlist warning: Voltage Node (NET10_M2_3004_168) does not have a DC path to
 ground
Netlist warning: Voltage Node (NET10_M2_3164_168) does not have a DC path to
 ground
Netlist warning: Voltage Node (NET10_M2_3244_168) does not have a DC path to
 ground
Netlist warning: Voltage Node (NET10_M2_3324_168) does not have a DC path to
 ground
Netlist warning: Voltage Node (NET10_M2_3484_168) does not have a DC path to
 ground
Netlist warning: Voltage Node (VSS_M1_960_408) does not have a DC path to
 ground
Netlist warning: Voltage Node (NET10_M2_3804_168) does not have a DC path to
 ground
Netlist warning: Voltage Node (VDD_M2_3164_168) does not have a DC path to
 ground
Netlist warning: Voltage Node (VDD_M2_3244_168) does not have a DC path to
 ground
Netlist warning: Voltage Node (VDD_M2_3324_168) does not have a DC path to
 ground
Netlist warning: Voltage Node (VDD_M2_3404_168) does not have a DC path to
 ground
Netlist warning: Voltage Node (VOUT_M1_2480_416) does not have a DC path to
 ground
Netlist warning: Voltage Node (VDD_M2_3484_168) does not have a DC path to
 ground
Netlist warning: Voltage Node (VDD_M2_3724_168) does not have a DC path to
 ground
Netlist warning: Voltage Node (VDD_M2_3804_168) does not have a DC path to
 ground
Netlist warning: Voltage Node (VDD_M2_320_168) does not have a DC path to
 ground
Netlist warning: Voltage Node (NET8_M1_3840_648) does not have a DC path to
 ground
Netlist warning: Voltage Node (VDD_M2_400_168) does not have a DC path to
 ground
Netlist warning: Voltage Node (VDD_M2_800_168) does not have a DC path to
 ground
Netlist warning: Voltage Node (VSS_M2_364_168) does not have a DC path to
 ground
Netlist warning: Voltage Node (VDD_M2_960_168) does not have a DC path to
 ground
Netlist warning: Voltage Node (VOUT_M1_2480_588) does not have a DC path to
 ground
Netlist warning: Voltage Node (VDD_M2_1040_168) does not have a DC path to
 ground
Netlist warning: Voltage Node (VDD_M2_1120_168) does not have a DC path to
 ground
Netlist warning: Voltage Node (NET8_M1_3840_212) does not have a DC path to
 ground
Netlist warning: Voltage Node (VDD_M2_1280_168) does not have a DC path to
 ground
Netlist warning: Voltage Node (VDD_M2_1360_168) does not have a DC path to
 ground
Netlist warning: Voltage Node (ID_M1_1040_648) does not have a DC path to
 ground
Netlist warning: Voltage Node (VDD_M2_1840_168) does not have a DC path to
 ground
Netlist warning: Voltage Node (VDD_M2_2000_168) does not have a DC path to
 ground
Netlist warning: Voltage Node (VDD_M2_2400_168) does not have a DC path to
 ground
Netlist warning: Voltage Node (ID_M1_400_728) does not have a DC path to
 ground
Netlist warning: Voltage Node (VDD_M2_2560_168) does not have a DC path to
 ground
Netlist warning: Voltage Node (VDD_M2_2640_168) does not have a DC path to
 ground
Netlist warning: Voltage Node (VDD_M2_2800_168) does not have a DC path to
 ground
Netlist warning: Voltage Node (VDD_M2_2880_168) does not have a DC path to
 ground
Netlist warning: Voltage Node (VDD_M2_3040_168) does not have a DC path to
 ground
Netlist warning: Voltage Node (VDD_M2_3316_168) does not have a DC path to
 ground
Netlist warning: Voltage Node (VDD_M2_3600_168) does not have a DC path to
 ground
Netlist warning: Voltage Node (VDD_M2_3680_168) does not have a DC path to
 ground
Netlist warning: Voltage Node (NET8_M1_3760_420) does not have a DC path to
 ground
Netlist warning: Voltage Node (VDD_M2_3840_168) does not have a DC path to
 ground
Netlist warning: Voltage Node (NET10_M2_844_336) does not have a DC path to
 ground
Netlist warning: Voltage Node (NET10_M2_924_336) does not have a DC path to
 ground
Netlist warning: Voltage Node (NET10_M2_1004_336) does not have a DC path to
 ground
Netlist warning: Voltage Node (NET10_M2_1084_336) does not have a DC path to
 ground
Netlist warning: Voltage Node (VDD_M1_3920_792) does not have a DC path to
 ground
Netlist warning: Voltage Node (NET10_M1_1680_792) does not have a DC path to
 ground
Netlist warning: Voltage Node (NET10_M2_2524_168) does not have a DC path to
 ground
Netlist warning: Voltage Node (VDD_M2_3280_168) does not have a DC path to
 ground
Netlist warning: Voltage Node (NET10_M2_1164_336) does not have a DC path to
 ground
Netlist warning: Voltage Node (VDD_M2_2480_168) does not have a DC path to
 ground
Netlist warning: Voltage Node (NET10_M2_1324_336) does not have a DC path to
 ground
Netlist warning: Voltage Node (NET10_M1_1120_576) does not have a DC path to
 ground
Netlist warning: Voltage Node (NET10_M2_1404_336) does not have a DC path to
 ground
Netlist warning: Voltage Node (VSS_M2_1484_168) does not have a DC path to
 ground
Netlist warning: Voltage Node (NET10_M2_1564_336) does not have a DC path to
 ground
Netlist warning: Voltage Node (NET10_M2_1724_336) does not have a DC path to
 ground
Netlist warning: Voltage Node (VDD_M2_1760_168) does not have a DC path to
 ground
Netlist warning: Voltage Node (NET10_M2_1804_336) does not have a DC path to
 ground
Netlist warning: Voltage Node (NET10_M2_1964_336) does not have a DC path to
 ground
Netlist warning: Voltage Node (NET10_M2_2204_336) does not have a DC path to
 ground
Netlist warning: Voltage Node (VSS_M2_2764_168) does not have a DC path to
 ground
Netlist warning: Voltage Node (NET10_M2_2444_336) does not have a DC path to
 ground
Netlist warning: Voltage Node (NET10_M2_2604_336) does not have a DC path to
 ground
Netlist warning: Voltage Node (NET10_M2_2684_336) does not have a DC path to
 ground
Netlist warning: Voltage Node (NET10_M2_2764_336) does not have a DC path to
 ground
Netlist warning: Voltage Node (NET10_M2_2924_336) does not have a DC path to
 ground
Netlist warning: Voltage Node (NET10_M2_2044_336) does not have a DC path to
 ground
Netlist warning: Voltage Node (NET10_M2_3004_336) does not have a DC path to
 ground
Netlist warning: Voltage Node (ID_M1_400_168) does not have a DC path to
 ground
Netlist warning: Voltage Node (NET10_M2_3324_336) does not have a DC path to
 ground
Netlist warning: Voltage Node (NET10_M2_3484_336) does not have a DC path to
 ground
Netlist warning: Voltage Node (NET10_M2_3644_336) does not have a DC path to
 ground
Netlist warning: Voltage Node (NET10_M2_3724_336) does not have a DC path to
 ground
Netlist warning: Voltage Node (VINP_M1_1760_212) does not have a DC path to
 ground
Netlist warning: Voltage Node (NET10_M2_3884_336) does not have a DC path to
 ground
Netlist warning: Voltage Node (VOUT_M2_2364_336) does not have a DC path to
 ground
Netlist warning: Voltage Node (VINP_M1_1760_792) does not have a DC path to
 ground
Netlist warning: Voltage Node (VOUT_M2_2684_336) does not have a DC path to
 ground
Netlist warning: Voltage Node (VOUT_M2_2924_336) does not have a DC path to
 ground
Netlist warning: Voltage Node (VOUT_M2_3004_336) does not have a DC path to
 ground
Netlist warning: Voltage Node (VOUT_M2_3084_336) does not have a DC path to
 ground
Netlist warning: Voltage Node (VOUT_M2_3164_336) does not have a DC path to
 ground
Netlist warning: Voltage Node (VOUT_M2_3244_336) does not have a DC path to
 ground
Netlist warning: Voltage Node (VOUT_M2_3564_336) does not have a DC path to
 ground
Netlist warning: Voltage Node (VOUT_M2_3644_336) does not have a DC path to
 ground
Netlist warning: Voltage Node (VOUT_M2_3884_336) does not have a DC path to
 ground
Netlist warning: Voltage Node (NET8_M2_3084_336) does not have a DC path to
 ground
Netlist warning: Voltage Node (NET8_M2_3164_336) does not have a DC path to
 ground
Netlist warning: Voltage Node (NET8_M2_3244_336) does not have a DC path to
 ground
Netlist warning: Voltage Node (NET8_M2_3404_336) does not have a DC path to
 ground
Netlist warning: Voltage Node (NET8_M2_3564_336) does not have a DC path to
 ground
Netlist warning: Voltage Node (NET8_M2_3644_336) does not have a DC path to
 ground
Netlist warning: Voltage Node (VOUT_M1_3040_542) does not have a DC path to
 ground
Netlist warning: Voltage Node (NET8_M2_3724_336) does not have a DC path to
 ground
Netlist warning: Voltage Node (NET8_M2_1120_336) does not have a DC path to
 ground
Netlist warning: Voltage Node (NET8_M2_1200_336) does not have a DC path to
 ground
Netlist warning: Voltage Node (NET8_M2_1520_336) does not have a DC path to
 ground
Netlist warning: Voltage Node (NET8_M2_1680_336) does not have a DC path to
 ground
Netlist warning: Voltage Node (NET8_M2_1840_336) does not have a DC path to
 ground
Netlist warning: Voltage Node (NET10_M1_2320_328) does not have a DC path to
 ground
Netlist warning: Voltage Node (NET8_M2_2080_336) does not have a DC path to
 ground
Netlist warning: Voltage Node (NET8_M2_2160_336) does not have a DC path to
 ground
Netlist warning: Voltage Node (NET8_M2_2240_336) does not have a DC path to
 ground
Netlist warning: Voltage Node (NET8_M2_2320_336) does not have a DC path to
 ground
Netlist warning: Voltage Node (VSS_M1_960_542) does not have a DC path to
 ground
Netlist warning: Voltage Node (NET8_M2_2400_336) does not have a DC path to
 ground
Netlist warning: Voltage Node (NET8_M1_3120_168) does not have a DC path to
 ground
Netlist warning: Voltage Node (NET8_M2_2560_336) does not have a DC path to
 ground
Netlist warning: Voltage Node (NET8_M2_2480_336) does not have a DC path to
 ground
Netlist warning: Voltage Node (NET8_M2_2640_336) does not have a DC path to
 ground
Netlist warning: Voltage Node (NET8_M2_2720_336) does not have a DC path to
 ground
Netlist warning: Voltage Node (VINP_M1_1760_168) does not have a DC path to
 ground
Netlist warning: Voltage Node (NET8_M2_2800_336) does not have a DC path to
 ground
Netlist warning: Voltage Node (NET8_M2_2880_336) does not have a DC path to
 ground
Netlist warning: Voltage Node (NET8_M2_2960_336) does not have a DC path to
 ground
Netlist warning: Voltage Node (VDD_M2_2160_168) does not have a DC path to
 ground
Netlist warning: Voltage Node (NET8_M2_3200_336) does not have a DC path to
 ground
Netlist warning: Voltage Node (NET8_M1_3760_748) does not have a DC path to
 ground
Netlist warning: Voltage Node (VDD_M2_3324_336) does not have a DC path to
 ground
Netlist warning: Voltage Node (NET10_M1_1680_328) does not have a DC path to
 ground
Netlist warning: Voltage Node (VDD_M2_3404_336) does not have a DC path to
 ground
Netlist warning: Voltage Node (VDD_M2_3564_336) does not have a DC path to
 ground
Netlist warning: Voltage Node (VDD_M2_3644_336) does not have a DC path to
 ground
Netlist warning: Voltage Node (VDD_M2_3884_336) does not have a DC path to
 ground
Netlist warning: Voltage Node (VDD_M2_3920_336) does not have a DC path to
 ground
Netlist warning: Voltage Node (VDD_M2_1200_336) does not have a DC path to
 ground
Netlist warning: Voltage Node (VDD_M2_1280_336) does not have a DC path to
 ground
Netlist warning: Voltage Node (NET8_M2_3236_336) does not have a DC path to
 ground
Netlist warning: Voltage Node (VDD_M2_1360_336) does not have a DC path to
 ground
Netlist warning: Voltage Node (VDD_M2_1520_336) does not have a DC path to
 ground
Netlist warning: Voltage Node (VSS_M2_1244_168) does not have a DC path to
 ground
Netlist warning: Voltage Node (VDD_M2_1600_336) does not have a DC path to
 ground
Netlist warning: Voltage Node (VSS_M2_2684_168) does not have a DC path to
 ground
Netlist warning: Voltage Node (VDD_M2_1840_336) does not have a DC path to
 ground
Netlist warning: Voltage Node (VDD_M2_2080_336) does not have a DC path to
 ground
Netlist warning: Voltage Node (VDD_M2_2240_336) does not have a DC path to
 ground
Netlist warning: Voltage Node (VDD_M2_2320_336) does not have a DC path to
 ground
Netlist warning: Voltage Node (VDD_M2_2400_336) does not have a DC path to
 ground
Netlist warning: Voltage Node (VDD_M2_2640_336) does not have a DC path to
 ground
Netlist warning: Voltage Node (VDD_M2_2720_336) does not have a DC path to
 ground
Netlist warning: Voltage Node (VDD_M2_2800_336) does not have a DC path to
 ground
Netlist warning: Voltage Node (VOUT_M2_2764_336) does not have a DC path to
 ground
Netlist warning: Voltage Node (VDD_M2_2880_336) does not have a DC path to
 ground
Netlist warning: Voltage Node (VDD_M2_3120_336) does not have a DC path to
 ground
Netlist warning: Voltage Node (VDD_M2_3280_336) does not have a DC path to
 ground
Netlist warning: Voltage Node (VDD_M2_3440_336) does not have a DC path to
 ground
Netlist warning: Voltage Node (VDD_M2_3636_336) does not have a DC path to
 ground
Netlist warning: Voltage Node (VDD_M2_3680_336) does not have a DC path to
 ground
Netlist warning: Voltage Node (VDD_M2_720_336) does not have a DC path to
 ground
Netlist warning: Voltage Node (VDD_M2_800_336) does not have a DC path to
 ground
Netlist warning: Voltage Node (VDD_M2_3600_336) does not have a DC path to
 ground
Netlist warning: Voltage Node (VDD_M2_880_336) does not have a DC path to
 ground
Netlist warning: Voltage Node (VDD_M2_960_336) does not have a DC path to
 ground
Netlist warning: Voltage Node (VDD_M2_1040_336) does not have a DC path to
 ground
Netlist warning: Voltage Node (NET10_M1_2320_168) does not have a DC path to
 ground
Netlist warning: Voltage Node (ID_M2_604_252) does not have a DC path to
 ground
Netlist warning: Voltage Node (NET8_M2_3120_336) does not have a DC path to
 ground
Netlist warning: Voltage Node (ID_M2_684_252) does not have a DC path to
 ground
Netlist warning: Voltage Node (ID_M2_764_252) does not have a DC path to
 ground
Netlist warning: Voltage Node (ID_M2_1324_252) does not have a DC path to
 ground
Netlist warning: Voltage Node (ID_M2_1404_252) does not have a DC path to
 ground
Netlist warning: Voltage Node (VINP_M1_1760_372) does not have a DC path to
 ground
Netlist warning: Voltage Node (ID_M2_1484_252) does not have a DC path to
 ground
Netlist warning: Voltage Node (ID_M2_1724_252) does not have a DC path to
 ground
Netlist warning: Voltage Node (ID_M2_1804_252) does not have a DC path to
 ground
Netlist warning: Voltage Node (ID_M2_1884_252) does not have a DC path to
 ground
Netlist warning: Voltage Node (ID_M2_1964_252) does not have a DC path to
 ground
Netlist warning: Voltage Node (VINP_M1_1760_292) does not have a DC path to
 ground
Netlist warning: Voltage Node (ID_M2_2204_252) does not have a DC path to
 ground
Netlist warning: Voltage Node (ID_M2_2364_252) does not have a DC path to
 ground
Netlist warning: Voltage Node (ID_M2_2444_252) does not have a DC path to
 ground
Netlist warning: Voltage Node (ID_M2_2524_252) does not have a DC path to
 ground
Netlist warning: Voltage Node (ID_M2_2684_252) does not have a DC path to
 ground
Netlist warning: Voltage Node (ID_M2_2844_252) does not have a DC path to
 ground
Netlist warning: Voltage Node (ID_M2_2924_252) does not have a DC path to
 ground
Netlist warning: Voltage Node (ID_M2_3244_252) does not have a DC path to
 ground
Netlist warning: Voltage Node (VDD_M1_3920_328) does not have a DC path to
 ground
Netlist warning: Voltage Node (ID_M2_3324_252) does not have a DC path to
 ground
Netlist warning: Voltage Node (VDD_M1_3920_248) does not have a DC path to
 ground
Netlist warning: Voltage Node (ID_M2_524_252) does not have a DC path to
 ground
Netlist warning: Voltage Node (ID_M2_3484_252) does not have a DC path to
 ground
Netlist warning: Voltage Node (NET10_M2_3084_168) does not have a DC path to
 ground
Netlist warning: Voltage Node (ID_M2_3644_252) does not have a DC path to
 ground
Netlist warning: Voltage Node (ID_M2_3724_252) does not have a DC path to
 ground
Netlist warning: Voltage Node (ID_M2_3804_252) does not have a DC path to
 ground
Netlist warning: Voltage Node (NET8_M1_1840_792) does not have a DC path to
 ground
Netlist warning: Voltage Node (VINP_M2_1404_252) does not have a DC path to
 ground
Netlist warning: Voltage Node (VINP_M2_1564_252) does not have a DC path to
 ground
Netlist warning: Voltage Node (ID_M2_3004_252) does not have a DC path to
 ground
Netlist warning: Voltage Node (VINP_M2_1724_252) does not have a DC path to
 ground
Netlist warning: Voltage Node (VDD_M2_1920_168) does not have a DC path to
 ground
Netlist warning: Voltage Node (VINP_M2_1804_252) does not have a DC path to
 ground
Netlist warning: Voltage Node (VDD_M1_3200_132) does not have a DC path to
 ground
Netlist warning: Voltage Node (VINP_M2_1884_252) does not have a DC path to
 ground
Netlist warning: Voltage Node (VINP_M2_2124_252) does not have a DC path to
 ground
Netlist warning: Voltage Node (NET10_M2_2364_168) does not have a DC path to
 ground
Netlist warning: Voltage Node (VDD_M2_2960_168) does not have a DC path to
 ground
Netlist warning: Voltage Node (VINP_M2_2524_252) does not have a DC path to
 ground
Netlist warning: Voltage Node (VDD_M2_3200_336) does not have a DC path to
 ground
Netlist warning: Voltage Node (VINP_M2_2604_252) does not have a DC path to
 ground
Netlist warning: Voltage Node (VINP_M2_2764_252) does not have a DC path to
 ground
Netlist warning: Voltage Node (VINP_M2_2844_252) does not have a DC path to
 ground
Netlist warning: Voltage Node (VINP_M2_2924_252) does not have a DC path to
 ground
Netlist warning: Voltage Node (VSS_M1_960_588) does not have a DC path to
 ground
Netlist warning: Voltage Node (NET10_M1_1120_292) does not have a DC path to
 ground
Netlist warning: Voltage Node (VINP_M2_3084_252) does not have a DC path to
 ground
Netlist warning: Voltage Node (VINP_M2_3404_252) does not have a DC path to
 ground
Netlist warning: Voltage Node (VINP_M2_3564_252) does not have a DC path to
 ground
Netlist warning: Voltage Node (VDD_M2_1120_336) does not have a DC path to
 ground
Netlist warning: Voltage Node (VINP_M2_3644_252) does not have a DC path to
 ground
Netlist warning: Voltage Node (VINP_M2_3804_252) does not have a DC path to
 ground
Netlist warning: Voltage Node (NET8_M2_3324_336) does not have a DC path to
 ground
Netlist warning: Voltage Node (VINP_M2_3840_252) does not have a DC path to
 ground
Netlist warning: Voltage Node (NET8_M2_1804_252) does not have a DC path to
 ground
Netlist warning: Voltage Node (VDD_M1_3200_542) does not have a DC path to
 ground
Netlist warning: Voltage Node (NET8_M2_1964_252) does not have a DC path to
 ground
Netlist warning: Voltage Node (NET8_M2_2204_252) does not have a DC path to
 ground
Netlist warning: Voltage Node (NET8_M2_2284_252) does not have a DC path to
 ground
Netlist warning: Voltage Node (NET10_M2_3920_336) does not have a DC path to
 ground
Netlist warning: Voltage Node (NET8_M2_2764_252) does not have a DC path to
 ground
Netlist warning: Voltage Node (NET8_M2_2000_336) does not have a DC path to
 ground
Netlist warning: Voltage Node (NET8_M2_2844_252) does not have a DC path to
 ground
Netlist warning: Voltage Node (NET10_M2_1244_168) does not have a DC path to
 ground
Netlist warning: Voltage Node (NET8_M2_3244_252) does not have a DC path to
 ground
Netlist warning: Voltage Node (NET8_M2_3324_252) does not have a DC path to
 ground
Netlist warning: Voltage Node (NET8_M2_3484_252) does not have a DC path to
 ground
Netlist warning: Voltage Node (NET8_M2_3564_252) does not have a DC path to
 ground
Netlist warning: Voltage Node (NET8_M2_3840_252) does not have a DC path to
 ground
Netlist warning: Voltage Node (VOUT_M2_2444_252) does not have a DC path to
 ground
Netlist warning: Voltage Node (VOUT_M2_2524_252) does not have a DC path to
 ground
Netlist warning: Voltage Node (VOUT_M2_2604_252) does not have a DC path to
 ground
Netlist warning: Voltage Node (VDD_M2_1520_168) does not have a DC path to
 ground
Netlist warning: Voltage Node (VOUT_M2_2684_252) does not have a DC path to
 ground
Netlist warning: Voltage Node (VOUT_M2_2844_252) does not have a DC path to
 ground
Netlist warning: Voltage Node (VOUT_M2_3004_252) does not have a DC path to
 ground
Netlist warning: Voltage Node (VOUT_M2_3164_252) does not have a DC path to
 ground
Netlist warning: Voltage Node (VOUT_M2_3324_252) does not have a DC path to
 ground
Netlist warning: Voltage Node (VOUT_M2_3404_252) does not have a DC path to
 ground
Netlist warning: Voltage Node (VOUT_M2_3564_252) does not have a DC path to
 ground
Netlist warning: Voltage Node (VDD_M2_3564_168) does not have a DC path to
 ground
Netlist warning: Voltage Node (VOUT_M2_3804_252) does not have a DC path to
 ground
Netlist warning: Voltage Node (NET8_M2_640_252) does not have a DC path to
 ground
Netlist warning: Voltage Node (VSS_M1_960_748) does not have a DC path to
 ground
Netlist warning: Voltage Node (NET8_M2_800_252) does not have a DC path to
 ground
Netlist warning: Voltage Node (VDD_M1_3200_328) does not have a DC path to
 ground
Netlist warning: Voltage Node (NET8_M2_960_252) does not have a DC path to
 ground
Netlist warning: Voltage Node (NET8_M2_1200_252) does not have a DC path to
 ground
Netlist warning: Voltage Node (NET8_M2_1520_252) does not have a DC path to
 ground
Netlist warning: Voltage Node (VINP_M2_2444_252) does not have a DC path to
 ground
Netlist warning: Voltage Node (NET8_M2_2124_252) does not have a DC path to
 ground
Netlist warning: Voltage Node (NET8_M2_1600_252) does not have a DC path to
 ground
Netlist warning: Voltage Node (NET8_M2_1680_252) does not have a DC path to
 ground
Netlist warning: Voltage Node (NET8_M2_880_252) does not have a DC path to
 ground
Netlist warning: Voltage Node (NET8_M2_2000_252) does not have a DC path to
 ground
Netlist warning: Voltage Node (NET8_M2_2080_252) does not have a DC path to
 ground
Netlist warning: Voltage Node (NET8_M2_2320_252) does not have a DC path to
 ground
Netlist warning: Voltage Node (NET8_M2_2480_252) does not have a DC path to
 ground
Netlist warning: Voltage Node (NET8_M2_2560_252) does not have a DC path to
 ground
Netlist warning: Voltage Node (NET8_M2_2640_252) does not have a DC path to
 ground
Netlist warning: Voltage Node (NET8_M2_2720_252) does not have a DC path to
 ground
Netlist warning: Voltage Node (NET8_M2_2800_252) does not have a DC path to
 ground
Netlist warning: Voltage Node (VSS_M2_604_168) does not have a DC path to
 ground
Netlist warning: Voltage Node (NET8_M2_2880_252) does not have a DC path to
 ground
Netlist warning: Voltage Node (NET8_M2_3120_252) does not have a DC path to
 ground
Netlist warning: Voltage Node (NET8_M2_3280_252) does not have a DC path to
 ground
Netlist warning: Voltage Node (NET8_M2_3360_252) does not have a DC path to
 ground
Netlist warning: Voltage Node (NET8_M2_3956_252) does not have a DC path to
 ground
Netlist warning: Voltage Node (NET10_M2_3644_168) does not have a DC path to
 ground
Netlist warning: Voltage Node (NET8_M2_2364_252) does not have a DC path to
 ground
Netlist warning: Voltage Node (VSS_M2_284_420) does not have a DC path to
 ground
Netlist warning: Voltage Node (VSS_M2_684_420) does not have a DC path to
 ground
Netlist warning: Voltage Node (VSS_M2_764_420) does not have a DC path to
 ground
Netlist warning: Voltage Node (NET8_M2_3004_336) does not have a DC path to
 ground
Netlist warning: Voltage Node (VDD_M2_2560_336) does not have a DC path to
 ground
Netlist warning: Voltage Node (VSS_M2_844_420) does not have a DC path to
 ground
Netlist warning: Voltage Node (VSS_M2_1004_420) does not have a DC path to
 ground
Netlist warning: Voltage Node (VSS_M2_1164_420) does not have a DC path to
 ground
Netlist warning: Voltage Node (VSS_M2_1004_168) does not have a DC path to
 ground
Netlist warning: Voltage Node (VSS_M2_1324_420) does not have a DC path to
 ground
Netlist warning: Voltage Node (VSS_M2_1404_420) does not have a DC path to
 ground
Netlist warning: Voltage Node (NET10_M1_1680_416) does not have a DC path to
 ground
Netlist warning: Voltage Node (VSS_M2_1484_420) does not have a DC path to
 ground
Netlist warning: Voltage Node (VSS_M2_1644_420) does not have a DC path to
 ground
Netlist warning: Voltage Node (VSS_M2_1724_420) does not have a DC path to
 ground
Netlist warning: Voltage Node (NET8_M2_400_252) does not have a DC path to
 ground
Netlist warning: Voltage Node (VSS_M2_1804_420) does not have a DC path to
 ground
Netlist warning: Voltage Node (VSS_M2_1884_420) does not have a DC path to
 ground
Netlist warning: Voltage Node (NET8_M2_3600_252) does not have a DC path to
 ground
Netlist warning: Voltage Node (VSS_M2_1964_420) does not have a DC path to
 ground
Netlist warning: Voltage Node (NET8_M2_1360_336) does not have a DC path to
 ground
Netlist warning: Voltage Node (VSS_M2_2204_420) does not have a DC path to
 ground
Netlist warning: Voltage Node (VSS_M2_2284_420) does not have a DC path to
 ground
Netlist warning: Voltage Node (VINP_M1_1760_648) does not have a DC path to
 ground
Netlist warning: Voltage Node (VSS_M2_2444_420) does not have a DC path to
 ground
Netlist warning: Voltage Node (VINP_M2_1324_252) does not have a DC path to
 ground
Netlist warning: Voltage Node (VSS_M2_2524_420) does not have a DC path to
 ground
Netlist warning: Voltage Node (VSS_M2_2604_420) does not have a DC path to
 ground
Netlist warning: Voltage Node (VSS_M2_2284_168) does not have a DC path to
 ground
Netlist warning: Voltage Node (VSS_M2_2684_420) does not have a DC path to
 ground
Netlist warning: Voltage Node (VSS_M2_2764_420) does not have a DC path to
 ground
Netlist warning: Voltage Node (VSS_M2_2844_420) does not have a DC path to
 ground
Netlist warning: Voltage Node (VSS_M2_3084_420) does not have a DC path to
 ground
Netlist warning: Voltage Node (VSS_M2_3164_420) does not have a DC path to
 ground
Netlist warning: Voltage Node (VSS_M2_3324_420) does not have a DC path to
 ground
Netlist warning: Voltage Node (VSS_M2_3564_420) does not have a DC path to
 ground
Netlist warning: Voltage Node (NET10_M2_764_336) does not have a DC path to
 ground
Netlist warning: Voltage Node (VSS_M2_3644_420) does not have a DC path to
 ground
Netlist warning: Voltage Node (VSS_M2_3724_420) does not have a DC path to
 ground
Netlist warning: Voltage Node (VSS_M2_2604_168) does not have a DC path to
 ground
Netlist warning: Voltage Node (NET8_M2_3920_252) does not have a DC path to
 ground
Netlist warning: Voltage Node (VSS_M2_3804_420) does not have a DC path to
 ground
Netlist warning: Voltage Node (VSS_M2_3840_420) does not have a DC path to
 ground
Netlist warning: Voltage Node (VOUT_M1_2480_462) does not have a DC path to
 ground
Netlist warning: Voltage Node (VINP_M2_1964_420) does not have a DC path to
 ground
Netlist warning: Voltage Node (VSS_M1_320_248) does not have a DC path to
 ground
Netlist warning: Voltage Node (VINP_M2_2044_420) does not have a DC path to
 ground
Netlist warning: Voltage Node (VINP_M2_2124_420) does not have a DC path to
 ground
Netlist warning: Voltage Node (VINP_M2_2204_420) does not have a DC path to
 ground
Netlist warning: Voltage Node (VINP_M2_2364_420) does not have a DC path to
 ground
Netlist warning: Voltage Node (VINP_M2_2444_420) does not have a DC path to
 ground
Netlist warning: Voltage Node (ID_M2_3840_252) does not have a DC path to
 ground
Netlist warning: Voltage Node (VINP_M2_2524_420) does not have a DC path to
 ground
Netlist warning: Voltage Node (VINP_M2_2604_420) does not have a DC path to
 ground
Netlist warning: Voltage Node (VINP_M2_2764_420) does not have a DC path to
 ground
Netlist warning: Voltage Node (VINP_M2_2844_420) does not have a DC path to
 ground
Netlist warning: Voltage Node (VINP_M2_2924_420) does not have a DC path to
 ground
Netlist warning: Voltage Node (VINP_M2_3004_420) does not have a DC path to
 ground
Netlist warning: Voltage Node (ID_M1_480_462) does not have a DC path to
 ground
Netlist warning: Voltage Node (VINP_M2_3084_420) does not have a DC path to
 ground
Netlist warning: Voltage Node (VDD_M2_640_0) does not have a DC path to ground
Netlist warning: Voltage Node (NET8_M4_2800_504) does not have a DC path to
 ground
Netlist warning: Voltage Node (VDD_M2_720_0) does not have a DC path to ground
Netlist warning: Voltage Node (NET10_M1_1120_782) does not have a DC path to
 ground
Netlist warning: Voltage Node (VDD_M2_800_0) does not have a DC path to ground
Netlist warning: Voltage Node (NET10_M2_3084_336) does not have a DC path to
 ground
Netlist warning: Voltage Node (NET8_M2_3804_336) does not have a DC path to
 ground
Netlist warning: Voltage Node (VDD_M2_1040_0) does not have a DC path to
 ground
Netlist warning: Voltage Node (NET10_M3_960_496) does not have a DC path to
 ground
Netlist warning: Voltage Node (NET10_M1_2320_462) does not have a DC path to
 ground
Netlist warning: Voltage Node (VOUT_M2_2960_252) does not have a DC path to
 ground
Netlist warning: Voltage Node (VOUT_M2_2460_0) does not have a DC path to
 ground
Netlist warning: Voltage Node (VDD_M2_1520_0) does not have a DC path to
 ground
Netlist warning: Voltage Node (VDD_M2_1680_0) does not have a DC path to
 ground
Netlist warning: Voltage Node (NET10_M2_1404_588) does not have a DC path to
 ground
Netlist warning: Voltage Node (NET8_M2_3956_420) does not have a DC path to
 ground
Netlist warning: Voltage Node (VDD_M2_2000_0) does not have a DC path to
 ground
Netlist warning: Voltage Node (VOUT_M2_2860_0) does not have a DC path to
 ground
Netlist warning: Voltage Node (NET8_M2_2240_588) does not have a DC path to
 ground
Netlist warning: Voltage Node (VDD_M2_3840_336) does not have a DC path to
 ground
Netlist warning: Voltage Node (VDD_M2_2560_0) does not have a DC path to
 ground
Netlist warning: Voltage Node (NET8_M2_1280_336) does not have a DC path to
 ground
Netlist warning: Voltage Node (NET8_M2_1760_336) does not have a DC path to
 ground
Netlist warning: Voltage Node (NET8_M2_2480_588) does not have a DC path to
 ground
Netlist warning: Voltage Node (VDD_M2_3120_0) does not have a DC path to
 ground
Netlist warning: Voltage Node (NET8_M4_3120_420) does not have a DC path to
 ground
Netlist warning: Voltage Node (NET10_M2_2444_588) does not have a DC path to
 ground
Netlist warning: Voltage Node (VDD_M2_3680_0) does not have a DC path to
 ground
Netlist warning: Voltage Node (VDD_M2_3440_168) does not have a DC path to
 ground
Netlist warning: Voltage Node (NET8_M2_3040_420) does not have a DC path to
 ground
Netlist warning: Voltage Node (VOUT_M1_2480_336) does not have a DC path to
 ground
Netlist warning: Voltage Node (VDD_M2_3840_0) does not have a DC path to
 ground
Netlist warning: Voltage Node (NET10_M2_2684_168) does not have a DC path to
 ground
Netlist warning: Voltage Node (VINP_M2_1884_420) does not have a DC path to
 ground
Netlist warning: Voltage Node (VOUT_M3_2960_540) does not have a DC path to
 ground
Netlist warning: Voltage Node (VDD_M2_960_0) does not have a DC path to ground
Netlist warning: Voltage Node (VOUT_M2_2764_84) does not have a DC path to
 ground
Netlist warning: Voltage Node (ID_M2_1004_252) does not have a DC path to
 ground
Netlist warning: Voltage Node (VDD_M2_2160_0) does not have a DC path to
 ground
Netlist warning: Voltage Node (NET10_M2_1244_336) does not have a DC path to
 ground
Netlist warning: Voltage Node (VSS_M2_3404_420) does not have a DC path to
 ground
Netlist warning: Voltage Node (VOUT_M2_2924_84) does not have a DC path to
 ground
Netlist warning: Voltage Node (ID_M2_1180_0) does not have a DC path to ground
Netlist warning: Voltage Node (VOUT_M2_2560_84) does not have a DC path to
 ground
Netlist warning: Voltage Node (VOUT_M1_3040_462) does not have a DC path to
 ground
Netlist warning: Voltage Node (VOUT_M2_2800_84) does not have a DC path to
 ground
Netlist warning: Voltage Node (NET8_M1_3840_328) does not have a DC path to
 ground
Netlist warning: Voltage Node (ID_M2_2044_252) does not have a DC path to
 ground
Netlist warning: Voltage Node (VDD_M3_3920_160) does not have a DC path to
 ground
Netlist warning: Voltage Node (VDD_M3_3920_168) does not have a DC path to
 ground
Netlist warning: Voltage Node (NET8_M2_2924_588) does not have a DC path to
 ground
Netlist warning: Voltage Node (VSS_M2_3724_168) does not have a DC path to
 ground
Netlist warning: Voltage Node (VDD_M3_3920_248) does not have a DC path to
 ground
Netlist warning: Voltage Node (VINP_M2_800_0) does not have a DC path to
 ground
Netlist warning: Voltage Node (VDD_M3_3760_336) does not have a DC path to
 ground
Netlist warning: Voltage Node (VDD_M3_3920_0) does not have a DC path to
 ground
Netlist warning: Voltage Node (ID_M2_1260_0) does not have a DC path to ground
Netlist warning: Voltage Node (NET10_M2_1644_588) does not have a DC path to
 ground
Netlist warning: Voltage Node (NET8_M3_3840_252) does not have a DC path to
 ground
Netlist warning: Voltage Node (NET10_M3_960_328) does not have a DC path to
 ground
Netlist warning: Voltage Node (VOUT_M2_2940_0) does not have a DC path to
 ground
Netlist warning: Voltage Node (NET8_M3_3840_332) does not have a DC path to
 ground
Netlist warning: Voltage Node (ID_M2_3580_0) does not have a DC path to ground
Netlist warning: Voltage Node (VDD_M2_1760_336) does not have a DC path to
 ground
Netlist warning: Voltage Node (NET8_M3_3840_456) does not have a DC path to
 ground
Netlist warning: Voltage Node (VDD_M3_3920_80) does not have a DC path to
 ground
Netlist warning: Voltage Node (NET8_M3_3680_252) does not have a DC path to
 ground
Netlist warning: Voltage Node (VOUT_M2_3484_252) does not have a DC path to
 ground
Netlist warning: Voltage Node (NET8_M3_3680_332) does not have a DC path to
 ground
Netlist warning: Voltage Node (NET8_M3_3680_412) does not have a DC path to
 ground
Netlist warning: Voltage Node (VSS_M2_3564_168) does not have a DC path to
 ground
Netlist warning: Voltage Node (VDD_M2_1600_168) does not have a DC path to
 ground
Netlist warning: Voltage Node (NET8_M2_2160_588) does not have a DC path to
 ground
Netlist warning: Voltage Node (NET8_M2_2080_588) does not have a DC path to
 ground
Netlist warning: Voltage Node (VDD_M3_3280_132) does not have a DC path to
 ground
Netlist warning: Voltage Node (NET10_M2_1484_336) does not have a DC path to
 ground
Netlist warning: Voltage Node (VDD_M3_3280_168) does not have a DC path to
 ground
Netlist warning: Voltage Node (VDD_M3_3280_328) does not have a DC path to
 ground
Netlist warning: Voltage Node (VDD_M3_3280_456) does not have a DC path to
 ground
Netlist warning: Voltage Node (VDD_M3_3040_328) does not have a DC path to
 ground
Netlist warning: Voltage Node (VDD_M2_3040_0) does not have a DC path to
 ground
Netlist warning: Voltage Node (VOUT_M2_2604_84) does not have a DC path to
 ground
Netlist warning: Voltage Node (VOUT_M2_2640_84) does not have a DC path to
 ground
Netlist warning: Voltage Node (VOUT_M2_1040_504) does not have a DC path to
 ground
Netlist warning: Voltage Node (NET8_M2_2844_336) does not have a DC path to
 ground
Netlist warning: Voltage Node (VOUT_M2_2996_84) does not have a DC path to
 ground
Netlist warning: Voltage Node (VOUT_M3_2960_164) does not have a DC path to
 ground
Netlist warning: Voltage Node (VDD_M2_3200_420) does not have a DC path to
 ground
Netlist warning: Voltage Node (VOUT_M3_3200_216) does not have a DC path to
 ground
Netlist warning: Voltage Node (VINN_M1_2400_488) does not have a DC path to
 ground
Netlist warning: Voltage Node (VOUT_M3_3200_252) does not have a DC path to
 ground
Netlist warning: Voltage Node (VINP_M2_1564_0) does not have a DC path to
 ground
Netlist warning: Voltage Node (VDD_M2_3600_0) does not have a DC path to
 ground
Netlist warning: Voltage Node (VSS_M2_1884_168) does not have a DC path to
 ground
Netlist warning: Voltage Node (NET8_M3_2880_624) does not have a DC path to
 ground
Netlist warning: Voltage Node (VINP_M2_1760_0) does not have a DC path to
 ground
Netlist warning: Voltage Node (VDD_M2_3956_336) does not have a DC path to
 ground
Netlist warning: Voltage Node (VOUT_M3_3200_412) does not have a DC path to
 ground
Netlist warning: Voltage Node (VINP_M2_2204_252) does not have a DC path to
 ground
Netlist warning: Voltage Node (NET8_M2_1920_252) does not have a DC path to
 ground
Netlist warning: Voltage Node (VDD_M2_4020_0) does not have a DC path to
 ground
Netlist warning: Voltage Node (VOUT_M3_3200_492) does not have a DC path to
 ground
Netlist warning: Voltage Node (VOUT_M3_3200_504) does not have a DC path to
 ground
Netlist warning: Voltage Node (VDD_M2_3804_336) does not have a DC path to
 ground
Netlist warning: Voltage Node (VOUT_M2_560_504) does not have a DC path to
 ground
Netlist warning: Voltage Node (VDD_M2_2480_336) does not have a DC path to
 ground
Netlist warning: Voltage Node (ID_M2_1084_504) does not have a DC path to
 ground
Netlist warning: Voltage Node (VOUT_M3_2960_84) does not have a DC path to
 ground
Netlist warning: Voltage Node (VDD_M2_2800_0) does not have a DC path to
 ground
Netlist warning: Voltage Node (VOUT_M3_2960_244) does not have a DC path to
 ground
Netlist warning: Voltage Node (NET8_M2_2400_420) does not have a DC path to
 ground
Netlist warning: Voltage Node (VOUT_M3_2960_412) does not have a DC path to
 ground
Netlist warning: Voltage Node (VINP_M2_2684_420) does not have a DC path to
 ground
Netlist warning: Voltage Node (NET_M2_M1_X0_Y0_G) does not have a DC path to
 ground
Netlist warning: Voltage Node (VOUT_M3_2960_492) does not have a DC path to
 ground
Netlist warning: Voltage Node (VOUT_M2_3040_252) does not have a DC path to
 ground
Netlist warning: Voltage Node (NET10_M2_2124_336) does not have a DC path to
 ground
Netlist warning: Voltage Node (ID_M2_3420_0) does not have a DC path to ground
Netlist warning: Voltage Node (VOUT_M3_2960_504) does not have a DC path to
 ground
Netlist warning: Voltage Node (VSS_M2_3484_420) does not have a DC path to
 ground
Netlist warning: Voltage Node (VINP_M2_3404_420) does not have a DC path to
 ground
Netlist warning: Voltage Node (VOUT_M1_3040_132) does not have a DC path to
 ground
Netlist warning: Voltage Node (VDD_M3_3600_416) does not have a DC path to
 ground
Netlist warning: Voltage Node (NET10_M2_1404_168) does not have a DC path to
 ground
Netlist warning: Voltage Node (NET8_M2_3644_252) does not have a DC path to
 ground
Netlist warning: Voltage Node (NET8_M3_3120_300) does not have a DC path to
 ground
Netlist warning: Voltage Node (VOUT_M4_2640_252) does not have a DC path to
 ground
Netlist warning: Voltage Node (VSS_M2_364_420) does not have a DC path to
 ground
Netlist warning: Voltage Node (VOUT_M3_2640_357) does not have a DC path to
 ground
Netlist warning: Voltage Node (VDD_M2_4000_0) does not have a DC path to
 ground
Netlist warning: Voltage Node (NET8_M3_3120_416) does not have a DC path to
 ground
Netlist warning: Voltage Node (VDD_M2_3920_0) does not have a DC path to
 ground
Netlist warning: Voltage Node (NET10_M2_2320_168) does not have a DC path to
 ground
Netlist warning: Voltage Node (NET8_M3_3120_496) does not have a DC path to
 ground
Netlist warning: Voltage Node (VINP_M2_2284_0) does not have a DC path to
 ground
Netlist warning: Voltage Node (NET8_M2_3804_420) does not have a DC path to
 ground
Netlist warning: Voltage Node (VDD_M2_3040_336) does not have a DC path to
 ground
Netlist warning: Voltage Node (NET8_M3_2880_300) does not have a DC path to
 ground
Netlist warning: Voltage Node (VDD_M2_480_168) does not have a DC path to
 ground
Netlist warning: Voltage Node (ID_M2_1820_0) does not have a DC path to ground
Netlist warning: Voltage Node (NET8_M3_2880_496) does not have a DC path to
 ground
Netlist warning: Voltage Node (NET8_M2_560_420) does not have a DC path to
 ground
Netlist warning: Voltage Node (NET8_M3_2880_420) does not have a DC path to
 ground
Netlist warning: Voltage Node (VINP_M2_880_0) does not have a DC path to
 ground
Netlist warning: Voltage Node (NET10_M2_1564_168) does not have a DC path to
 ground
Netlist warning: Voltage Node (NET8_M3_2880_584) does not have a DC path to
 ground
Netlist warning: Voltage Node (NET8_M2_3884_336) does not have a DC path to
 ground
Netlist warning: Voltage Node (VINP_M2_1040_0) does not have a DC path to
 ground
Netlist warning: Voltage Node (VSS_M3_560_168) does not have a DC path to
 ground
Netlist warning: Voltage Node (VINN_M2_2684_504) does not have a DC path to
 ground
Netlist warning: Voltage Node (VOUT_M1_3040_492) does not have a DC path to
 ground
Netlist warning: Voltage Node (VSS_M3_560_248) does not have a DC path to
 ground
Netlist warning: Voltage Node (VSS_M3_560_420) does not have a DC path to
 ground
Netlist warning: Voltage Node (ID_M2_1884_504) does not have a DC path to
 ground
Netlist warning: Voltage Node (VSS_M3_560_456) does not have a DC path to
 ground
Netlist warning: Voltage Node (VSS_M3_800_168) does not have a DC path to
 ground
Netlist warning: Voltage Node (VINP_M2_3724_252) does not have a DC path to
 ground
Netlist warning: Voltage Node (VSS_M3_800_328) does not have a DC path to
 ground
Netlist warning: Voltage Node (VSS_M3_800_420) does not have a DC path to
 ground
Netlist warning: Voltage Node (NET8_M2_1600_588) does not have a DC path to
 ground
Netlist warning: Voltage Node (VDD_M3_3760_168) does not have a DC path to
 ground
Netlist warning: Voltage Node (VDD_M2_3724_336) does not have a DC path to
 ground
Netlist warning: Voltage Node (VSS_M3_800_456) does not have a DC path to
 ground
Netlist warning: Voltage Node (NET8_M3_3680_420) does not have a DC path to
 ground
Netlist warning: Voltage Node (NET10_M3_720_300) does not have a DC path to
 ground
Netlist warning: Voltage Node (NET10_M3_720_624) does not have a DC path to
 ground
Netlist warning: Voltage Node (NET10_M3_720_496) does not have a DC path to
 ground
Netlist warning: Voltage Node (VOUT_M1_3040_252) does not have a DC path to
 ground
Netlist warning: Voltage Node (VSS_M2_2044_420) does not have a DC path to
 ground
Netlist warning: Voltage Node (VDD_M4_3680_336) does not have a DC path to
 ground
Netlist warning: Voltage Node (NET10_M3_960_208) does not have a DC path to
 ground
Netlist warning: Voltage Node (VOUT_M2_2684_84) does not have a DC path to
 ground
Netlist warning: Voltage Node (NET8_M3_3840_216) does not have a DC path to
 ground
Netlist warning: Voltage Node (VOUT_M2_3244_252) does not have a DC path to
 ground
Netlist warning: Voltage Node (NET10_M3_960_588) does not have a DC path to
 ground
Netlist warning: Voltage Node (VINP_M2_3004_252) does not have a DC path to
 ground
Netlist warning: Voltage Node (VDD_M2_1360_0) does not have a DC path to
 ground
Netlist warning: Voltage Node (NET10_M3_720_416) does not have a DC path to
 ground
Netlist warning: Voltage Node (VDD_M3_3760_328) does not have a DC path to
 ground
Netlist warning: Voltage Node (NET8_M2_2880_588) does not have a DC path to
 ground
Netlist warning: Voltage Node (VDD_M4_3560_336) does not have a DC path to
 ground
Netlist warning: Voltage Node (VSS_M1_960_132) does not have a DC path to
 ground
Netlist warning: Voltage Node (VDD_M2_1920_0) does not have a DC path to
 ground
Netlist warning: Voltage Node (VSS_M2_2124_420) does not have a DC path to
 ground
Netlist warning: Voltage Node (VDD_M4_3400_336) does not have a DC path to
 ground
Netlist warning: Voltage Node (NET8_M2_560_252) does not have a DC path to
 ground
Netlist warning: Voltage Node (ID_M2_1980_0) does not have a DC path to ground
Netlist warning: Voltage Node (VSS_M2_3644_168) does not have a DC path to
 ground
Netlist warning: Voltage Node (NET10_M2_1804_588) does not have a DC path to
 ground
Netlist warning: Voltage Node (VDD_M4_3600_336) does not have a DC path to
 ground
Netlist warning: Voltage Node (NET8_M1_3840_168) does not have a DC path to
 ground
Netlist warning: Voltage Node (VOUT_M3_2480_372) does not have a DC path to
 ground
Netlist warning: Voltage Node (NET8_M4_2920_504) does not have a DC path to
 ground
Netlist warning: Voltage Node (VINP_M2_3644_0) does not have a DC path to
 ground
Netlist warning: Voltage Node (ID_M2_3164_252) does not have a DC path to
 ground
Netlist warning: Voltage Node (VDD_M3_3920_372) does not have a DC path to
 ground
Netlist warning: Voltage Node (NET_M5_M4_M2_X1_Y0_G) does not have a DC path
 to ground
Netlist warning: Voltage Node (VSS_M3_800_132) does not have a DC path to
 ground
Netlist warning: Voltage Node (VINN_M1_2400_728) does not have a DC path to
 ground
Netlist warning: Voltage Node (VDD_M2_1680_336) does not have a DC path to
 ground
Netlist warning: Voltage Node (VOUT_M2_3820_0) does not have a DC path to
 ground
Netlist warning: Voltage Node (VOUT_M2_2880_84) does not have a DC path to
 ground
Netlist warning: Voltage Node (VDD_M3_3280_408) does not have a DC path to
 ground
Netlist warning: Voltage Node (VOUT_M4_2680_252) does not have a DC path to
 ground
Netlist warning: Voltage Node (NET10_M2_2284_588) does not have a DC path to
 ground
Netlist warning: Voltage Node (ID_M2_940_0) does not have a DC path to ground
Netlist warning: Voltage Node (VSS_M1_320_748) does not have a DC path to
 ground
Netlist warning: Voltage Node (NET10_M2_2524_336) does not have a DC path to
 ground
Netlist warning: Voltage Node (NET_M0_M3_M1_X0_Y0_D) does not have a DC path
 to ground
Netlist warning: Voltage Node (NET10_M3_720_588) does not have a DC path to
 ground
Netlist warning: Voltage Node (NET8_M3_2160_216) does not have a DC path to
 ground
Netlist warning: Voltage Node (NET10_M1_1680_668) does not have a DC path to
 ground
Netlist warning: Voltage Node (VOUT_M2_2000_504) does not have a DC path to
 ground
Netlist warning: Voltage Node (VDD_M1_3920_132) does not have a DC path to
 ground
Netlist warning: Voltage Node (VDD_M2_2720_168) does not have a DC path to
 ground
Netlist warning: Voltage Node (VDD_M4_3200_336) does not have a DC path to
 ground
Netlist warning: Voltage Node (VDD_M3_3040_456) does not have a DC path to
 ground
Netlist warning: Voltage Node (VDD_M3_3040_420) does not have a DC path to
 ground
Netlist warning: Voltage Node (VDD_M2_3520_0) does not have a DC path to
 ground
Netlist warning: Voltage Node (VDD_M1_3200_416) does not have a DC path to
 ground
Netlist warning: Voltage Node (NET10_M1_1680_748) does not have a DC path to
 ground
Netlist warning: Voltage Node (NET_M5_M4_M1_X0_Y0_D) does not have a DC path
 to ground
Netlist warning: Voltage Node (NET10_M4_1200_168) does not have a DC path to
 ground
Netlist warning: Voltage Node (NET_M1_M1_X0_Y0_G) does not have a DC path to
 ground
Netlist warning: Voltage Node (VDD_M3_3760_416) does not have a DC path to
 ground
Netlist warning: Voltage Node (ID_M1_400_648) does not have a DC path to
 ground
Netlist warning: Voltage Node (VOUT_M2_2524_336) does not have a DC path to
 ground
Netlist warning: Voltage Node (VINP_M3_1600_40) does not have a DC path to
 ground
Netlist warning: Voltage Node (ID_M1_1040_168) does not have a DC path to
 ground
Netlist warning: Voltage Node (VOUT_M2_3004_504) does not have a DC path to
 ground
Netlist warning: Voltage Node (NET10_M4_920_168) does not have a DC path to
 ground
Netlist warning: Voltage Node (VDD_M2_3760_336) does not have a DC path to
 ground
Netlist warning: Voltage Node (VDD_M2_1600_0) does not have a DC path to
 ground
Netlist warning: Voltage Node (NET10_M3_960_568) does not have a DC path to
 ground
Netlist warning: Voltage Node (NET10_M2_3244_336) does not have a DC path to
 ground
Netlist warning: Voltage Node (NET8_M2_2560_420) does not have a DC path to
 ground
Netlist warning: Voltage Node (NET8_M1_3760_542) does not have a DC path to
 ground
Netlist warning: Voltage Node (VDD_M2_2240_168) does not have a DC path to
 ground
Netlist warning: Voltage Node (NET_M0_M3_M1_X0_Y0_G) does not have a DC path
 to ground
Netlist warning: Voltage Node (VDD_M3_3040_408) does not have a DC path to
 ground
Netlist warning: Voltage Node (VOUT_M3_2960_48) does not have a DC path to
 ground
Netlist warning: Voltage Node (VOUT_M4_2560_252) does not have a DC path to
 ground
Netlist warning: Voltage Node (NET8_M2_3084_252) does not have a DC path to
 ground
Netlist warning: Voltage Node (VDD_M4_3760_336) does not have a DC path to
 ground
Netlist warning: Voltage Node (VDD_M2_3200_0) does not have a DC path to
 ground
Netlist warning: Voltage Node (ID_M2_3660_0) does not have a DC path to ground
Netlist warning: Voltage Node (VDD_M3_3920__36) does not have a DC path to
 ground
Netlist warning: Voltage Node (NET10_M1_1680_588) does not have a DC path to
 ground
Netlist warning: Voltage Node (NET_M0_M3_M2_X1_Y0_D) does not have a DC path
 to ground
Netlist warning: Voltage Node (NET_M5_M4_M2_X1_Y0_S) does not have a DC path
 to ground
Netlist warning: Voltage Node (NET8_M2_2400_252) does not have a DC path to
 ground
Netlist warning: Voltage Node (NET8_M4_2320_504) does not have a DC path to
 ground
Netlist warning: Voltage Node (NET8_M2_1120_252) does not have a DC path to
 ground
Netlist warning: Voltage Node (NET10_M3_720_576) does not have a DC path to
 ground
Netlist warning: Voltage Node (NET8_M2_480_420) does not have a DC path to
 ground
Netlist warning: Voltage Node (VSS_M2_1964_168) does not have a DC path to
 ground
Netlist warning: Voltage Node (VDD_M2_3084_168) does not have a DC path to
 ground
Netlist warning: Voltage Node (NET8_M2_3804_252) does not have a DC path to
 ground
Netlist warning: Voltage Node (VDD_M3_3360_231) does not have a DC path to
 ground
Netlist warning: Voltage Node (VINP_M2_3324_420) does not have a DC path to
 ground
Netlist warning: Voltage Node (VDD_M1_3200_248) does not have a DC path to
 ground
Netlist warning: Voltage Node (NET10_M3_720_336) does not have a DC path to
 ground
Netlist warning: Voltage Node (NET8_M2_3680_252) does not have a DC path to
 ground
Netlist warning: Voltage Node (ID_M2_2284_504) does not have a DC path to
 ground
Netlist warning: Voltage Node (NET8_M3_2880_500) does not have a DC path to
 ground
Netlist warning: Voltage Node (VSS_M2_2364_420) does not have a DC path to
 ground
Netlist warning: Voltage Node (VOUT_M2_2160_0) does not have a DC path to
 ground
Netlist warning: Voltage Node (VSS_M2_320_420) does not have a DC path to
 ground
Netlist warning: Voltage Node (VDD_M2_2320_168) does not have a DC path to
 ground
Netlist warning: Voltage Node (VDD_M2_1440_0) does not have a DC path to
 ground
Netlist warning: Voltage Node (NET_M2_M1_X0_Y0_DIFF) does not have a DC path
 to ground
Netlist warning: Voltage Node (VDD_M2_3200_168) does not have a DC path to
 ground
Netlist warning: Voltage Node (VOUT_M2_2844_336) does not have a DC path to
 ground
Netlist warning: Voltage Node (NET8_M2_1920_336) does not have a DC path to
 ground
Netlist warning: Voltage Node (VOUT_M2_480_504) does not have a DC path to
 ground
Netlist warning: Voltage Node (VSS_M2_320_168) does not have a DC path to
 ground
Netlist warning: Voltage Node (VINP_M3_1600__40) does not have a DC path to
 ground
Netlist warning: Voltage Node (VINN_M2_2844_504) does not have a DC path to
 ground
Netlist warning: Voltage Node (NET_M5_M4_M1_X0_Y0_S) does not have a DC path
 to ground
Netlist warning: Voltage Node (VOUT_M3_2480_252) does not have a DC path to
 ground
Netlist warning: Voltage Node (VSS_M2_960_420) does not have a DC path to
 ground
Netlist warning: Voltage Node (VOUT_M2_1520_504) does not have a DC path to
 ground
Netlist warning: Voltage Node (VOUT_M1_3040_416) does not have a DC path to
 ground
Netlist warning: Voltage Node (NET8_M3_3840_412) does not have a DC path to
 ground
Netlist warning: Voltage Node (NET10_M4_1280_168) does not have a DC path to
 ground
Netlist warning: Voltage Node (VOUT_M2_3804_336) does not have a DC path to
 ground
Netlist warning: Voltage Node (VDD_M4_3360_336) does not have a DC path to
 ground
Netlist warning: Voltage Node (ID_M2_2284_252) does not have a DC path to
 ground
Netlist warning: Voltage Node (VINP_M2_1920_420) does not have a DC path to
 ground
Netlist warning: Voltage Node (VDD_M3_3600_231) does not have a DC path to
 ground
Netlist warning: Voltage Node (VOUT_M2_2444_336) does not have a DC path to
 ground
Netlist warning: Voltage Node (VINP_M2_3404_0) does not have a DC path to
 ground
Netlist warning: Voltage Node (VOUT_M3_2960_252) does not have a DC path to
 ground
Netlist warning: Voltage Node (ID_M1_400_248) does not have a DC path to
 ground
Netlist warning: Voltage Node (VINP_M2_1360_252) does not have a DC path to
 ground
Netlist warning: Voltage Node (NET8_M2_880_588) does not have a DC path to
 ground
Netlist warning: Voltage Node (VDD_M2_1840_0) does not have a DC path to
 ground
Netlist warning: Voltage Node (VDD_M2_3280_420) does not have a DC path to
 ground
Netlist warning: Voltage Node (VDD_M2_3360_336) does not have a DC path to
 ground
Netlist warning: Voltage Node (NET10_M2_1084_588) does not have a DC path to
 ground
Netlist warning: Voltage Node (NET10_M2_1280_168) does not have a DC path to
 ground
Netlist warning: Voltage Node (VDD_M2_1920_336) does not have a DC path to
 ground
Netlist warning: Voltage Node (NET8_M2_2524_252) does not have a DC path to
 ground
Netlist warning: Voltage Node (NET8_M4_3040_420) does not have a DC path to
 ground
Netlist warning: Voltage Node (VINP_M2_1120_0) does not have a DC path to
 ground
Netlist warning: Voltage Node (VINP_M2_1724_0) does not have a DC path to
 ground
Netlist warning: Voltage Node (NET10_M2_1644_336) does not have a DC path to
 ground
Netlist warning: Voltage Node (NET8_M3_2160_252) does not have a DC path to
 ground
Netlist warning: Voltage Node (VOUT_M2_3324_336) does not have a DC path to
 ground
Netlist warning: Voltage Node (NET_M1_M1_X0_Y0_DIFF) does not have a DC path
 to ground
Netlist warning: Voltage Node (VOUT_M2_2720_84) does not have a DC path to
 ground
Netlist warning: Voltage Node (VDD_M2_2240_0) does not have a DC path to
 ground
Netlist warning: Voltage Node (NET8_M4_2560_504) does not have a DC path to
 ground
Netlist warning: Voltage Node (NET8_M3_3680_216) does not have a DC path to
 ground
Netlist warning: Voltage Node (VOUT_M2_2364_252) does not have a DC path to
 ground
Netlist warning: Voltage Node (NET8_M3_2880_576) does not have a DC path to
 ground
Netlist warning: Voltage Node (VINP_M2_3244_0) does not have a DC path to
 ground
Netlist warning: Voltage Node (ID_M2_2844_504) does not have a DC path to
 ground
Netlist warning: Voltage Node (NET10_M4_1320_168) does not have a DC path to
 ground
Netlist warning: Voltage Node (NET_M0_M3_M1_X0_Y0_S) does not have a DC path
 to ground
Netlist warning: Voltage Node (VDD_M2_3760_0) does not have a DC path to
 ground
Netlist warning: Voltage Node (NET_M0_M3_M2_X1_Y0_DIFF) does not have a DC
 path to ground
Netlist warning: Voltage Node (VDD_M2_640_168) does not have a DC path to
 ground
Netlist warning: Voltage Node (VOUT_M2_1040_0) does not have a DC path to
 ground
Netlist warning: Voltage Node (VINP_M3_1600_200) does not have a DC path to
 ground
Netlist warning: Voltage Node (NET8_M4_2160_504) does not have a DC path to
 ground
Netlist warning: Voltage Node (ID_M2_1724_504) does not have a DC path to
 ground
Netlist warning: Voltage Node (NET10_M1_1120_416) does not have a DC path to
 ground
Netlist warning: Voltage Node (NET_M5_M4_M1_X0_Y0_DIFF) does not have a DC
 path to ground
Netlist warning: Voltage Node (NET10_M2_1120_336) does not have a DC path to
 ground
Netlist warning: Voltage Node (NET8_M2_2684_252) does not have a DC path to
 ground
Netlist warning: Voltage Node (VDD_M2_2640_0) does not have a DC path to
 ground
Netlist warning: Voltage Node (VSS_M1_960_248) does not have a DC path to
 ground
Netlist warning: Voltage Node (ID_M2_1084_252) does not have a DC path to
 ground
Netlist warning: Voltage Node (VOUT_M2_1520_0) does not have a DC path to
 ground
Netlist warning: Voltage Node (VSS_M2_560_420) does not have a DC path to
 ground
Netlist warning: Voltage Node (VSS_M2_3244_420) does not have a DC path to
 ground
Netlist warning: Voltage Node (NET10_M2_1120_588) does not have a DC path to
 ground
Netlist warning: Voltage Node (VDD_M4_3800_336) does not have a DC path to
 ground
Netlist warning: Voltage Node (VOUT_M3_2400_252) does not have a DC path to
 ground
Netlist warning: Voltage Node (NET10_M2_2844_336) does not have a DC path to
 ground
Netlist warning: Voltage Node (NET8_M2_1200_588) does not have a DC path to
 ground
Netlist warning: Voltage Node (ID_M2_2604_252) does not have a DC path to
 ground
Netlist warning: Voltage Node (NET10_M2_1964_588) does not have a DC path to
 ground
Netlist warning: Voltage Node (ID_M2_364_252) does not have a DC path to
 ground
Netlist warning: Voltage Node (VOUT_M2_3500_0) does not have a DC path to
 ground
Netlist warning: Voltage Node (NET10_M4_960_168) does not have a DC path to
 ground
Netlist warning: Voltage Node (NET10_M3_960_576) does not have a DC path to
 ground
Netlist warning: Voltage Node (ID_M2_860_0) does not have a DC path to ground
Netlist warning: Voltage Node (NET8_M3_2160_492) does not have a DC path to
 ground
Netlist warning: Voltage Node (NET_M0_M3_M1_X0_Y0_DIFF) does not have a DC
 path to ground
Netlist warning: Voltage Node (NET8_M2_1680_420) does not have a DC path to
 ground
Netlist warning: Voltage Node (NET_M5_M4_M2_X1_Y0_D) does not have a DC path
 to ground
Netlist warning: Voltage Node (VDD_M2_3360_0) does not have a DC path to
 ground
Netlist warning: Voltage Node (VOUT_M1_3040_748) does not have a DC path to
 ground
Netlist warning: Voltage Node (NET8_M2_2604_252) does not have a DC path to
 ground
Netlist warning: Voltage Node (VOUT_M2_2500_0) does not have a DC path to
 ground
Netlist warning: Voltage Node (VDD_M4_3000_336) does not have a DC path to
 ground
Netlist warning: Voltage Node (NET10_M1_1120_792) does not have a DC path to
 ground
Netlist warning: Voltage Node (NET10_M1_2320_132) does not have a DC path to
 ground
Netlist warning: Voltage Node (VOUT_M2_1200_0) does not have a DC path to
 ground
Netlist warning: Voltage Node (VDD_M2_3120_168) does not have a DC path to
 ground
Netlist warning: Voltage Node (VSS_M2_800_168) does not have a DC path to
 ground
Netlist warning: Voltage Node (VDD_M2_3900_0) does not have a DC path to
 ground
Netlist warning: Voltage Node (NET10_M4_1120_168) does not have a DC path to
 ground
Netlist warning: Voltage Node (VOUT_M1_2480_668) does not have a DC path to
 ground
Netlist warning: Voltage Node (NET10_M2_2284_336) does not have a DC path to
 ground
Netlist warning: Voltage Node (VOUT_M3_2960_332) does not have a DC path to
 ground
Netlist warning: Voltage Node (NET_M5_M4_M2_X1_Y0_DIFF) does not have a DC
 path to ground
Netlist warning: Voltage Node (NET8_M1_3760_668) does not have a DC path to
 ground
Netlist warning: Voltage Node (NET10_M2_720_336) does not have a DC path to
 ground
Netlist warning: Voltage Node (VINP_M2_1200_0) does not have a DC path to
 ground
Netlist warning: Voltage Node (NET8_M2_3164_252) does not have a DC path to
 ground
Netlist warning: Voltage Node (VDD_M3_3760_132) does not have a DC path to
 ground
Netlist warning: Voltage Node (VOUT_M3_3200_540) does not have a DC path to
 ground
Netlist warning: Voltage Node (NET8_M2_2880_420) does not have a DC path to
 ground
Netlist warning: Voltage Node (NET8_M2_1760_420) does not have a DC path to
 ground
Netlist warning: Voltage Node (NET8_M4_3360_420) does not have a DC path to
 ground
Netlist warning: Voltage Node (NET_M0_M3_M2_X1_Y0_G) does not have a DC path
 to ground
Netlist warning: Voltage Node (VDD_M2_3840_420) does not have a DC path to
 ground
Netlist warning: Voltage Node (VDD_M2_2400_0) does not have a DC path to
 ground
Netlist warning: Voltage Node (NET8_M4_2720_504) does not have a DC path to
 ground
Netlist warning: Voltage Node (VOUT_M2_3920_336) does not have a DC path to
 ground
Netlist warning: Voltage Node (VDD_M3_3360_311) does not have a DC path to
 ground
Netlist warning: Voltage Node (VINP_M2_1600_252) does not have a DC path to
 ground
Netlist warning: Voltage Node (VOUT_M3_2480_164) does not have a DC path to
 ground
Netlist warning: Voltage Node (NET_M0_M3_M2_X1_Y0_S) does not have a DC path
 to ground
Netlist warning: Voltage Node (VDD_M2_3440_0) does not have a DC path to
 ground
Netlist warning: Voltage Node (NET8_M2_400_420) does not have a DC path to
 ground
Netlist warning: Voltage Node (VOUT_M2_2924_252) does not have a DC path to
 ground
Netlist warning: Voltage Node (VDD_M4_3280_336) does not have a DC path to
 ground
Netlist warning: Voltage Node (VSS_M1_960_792) does not have a DC path to
 ground
Netlist warning: Voltage Node (NET8_M2_1280_252) does not have a DC path to
 ground
Netlist warning: Voltage Node (VOUT_M2_1440_504) does not have a DC path to
 ground
Netlist warning: Voltage Node (NET8_M2_2320_588) does not have a DC path to
 ground
Netlist warning: Voltage Node (NET8_M4_2840_420) does not have a DC path to
 ground
Netlist warning: Voltage Node (NET10_M3_960_128) does not have a DC path to
 ground
Netlist warning: Voltage Node (NET8_M2_960_588) does not have a DC path to
 ground
Netlist warning: Voltage Node (NET8_M4_3280_420) does not have a DC path to
 ground
Netlist warning: Voltage Node (VINP_M2_3804_0) does not have a DC path to
 ground
Netlist warning: Voltage Node (NET8_M2_3236_588) does not have a DC path to
 ground
Netlist warning: Voltage Node (NET8_M2_2924_336) does not have a DC path to
 ground
Netlist warning: Voltage Node (VOUT_M2_3644_252) does not have a DC path to
 ground
Netlist warning: Voltage Node (VDD_M3_3360_416) does not have a DC path to
 ground
Netlist warning: Voltage Node (VOUT_M3_2400_288) does not have a DC path to
 ground
Netlist warning: Voltage Node (VDD_M1_3200_336) does not have a DC path to
 ground
Netlist warning: Voltage Node (NET8_M2_3760_420) does not have a DC path to
 ground
Netlist warning: Voltage Node (VDD_M2_3484_420) does not have a DC path to
 ground
Netlist warning: Voltage Node (VDD_M2_3280_0) does not have a DC path to
 ground
Netlist warning: Voltage Node (VINP_M1_1760_488) does not have a DC path to
 ground
Netlist warning: Voltage Node (NET10_M2_2124_168) does not have a DC path to
 ground
Netlist warning: Voltage Node (NET8_M2_1040_252) does not have a DC path to
 ground
Netlist warning: Voltage Node (VINP_M3_1920_208) does not have a DC path to
 ground
Netlist warning: Voltage Node (NET10_M3_960_488) does not have a DC path to
 ground
Netlist warning: Voltage Node (VINP_M2_2364_0) does not have a DC path to
 ground
Netlist warning: Voltage Node (NET10_M2_1680_168) does not have a DC path to
 ground
Netlist warning: Voltage Node (VDD_M2_2480_0) does not have a DC path to
 ground
Netlist warning: Voltage Node (VDD_M3_3600_311) does not have a DC path to
 ground
Netlist warning: Voltage Node (VOUT_M2_800_0) does not have a DC path to
 ground
Netlist warning: Voltage Node (VSS_M1_960_420) does not have a DC path to
 ground
Netlist warning: Voltage Node (NET8_M2_1840_420) does not have a DC path to
 ground
Netlist warning: Voltage Node (VSS_M2_800_420) does not have a DC path to
 ground
Netlist warning: Voltage Node (VSS_M3_800_408) does not have a DC path to
 ground
Netlist warning: Voltage Node (ID_M1_1040_248) does not have a DC path to
 ground
Netlist warning: Voltage Node (NET10_M2_3404_168) does not have a DC path to
 ground
Netlist warning: Voltage Node (NET10_M2_3120_588) does not have a DC path to
 ground
Netlist warning: Voltage Node (VSS_M1_320_416) does not have a DC path to
 ground
Netlist warning: Voltage Node (VDD_M2_3884_168) does not have a DC path to
 ground
Netlist warning: Voltage Node (VOUT_M2_1920_504) does not have a DC path to
 ground
Netlist warning: Voltage Node (VDD_M2_3040_420) does not have a DC path to
 ground
Netlist warning: Voltage Node (VDD_M3_3600_336) does not have a DC path to
 ground
Netlist warning: Voltage Node (NET8_M4_3440_420) does not have a DC path to
 ground
Netlist warning: Voltage Node (NET10_M4_1040_168) does not have a DC path to
 ground
Netlist warning: Voltage Node (NET8_M4_3600_420) does not have a DC path to
 ground
Netlist warning: Voltage Node (VOUT_M4_2440_252) does not have a DC path to
 ground
Netlist warning: Voltage Node (NET10_M2_2204_588) does not have a DC path to
 ground
Netlist warning: Voltage Node (NET8_M4_2640_504) does not have a DC path to
 ground
Netlist warning: Voltage Node (NET8_M3_3680_525) does not have a DC path to
 ground
Netlist warning: Voltage Node (VINP_M1_1760_420) does not have a DC path to
 ground
Netlist warning: Voltage Node (VDD_M2_2880_0) does not have a DC path to
 ground
Netlist warning: Voltage Node (VOUT_M2_2640_252) does not have a DC path to
 ground
Netlist warning: Voltage Node (VOUT_M1_3040_212) does not have a DC path to
 ground
Netlist warning: Voltage Node (NET8_M4_2480_504) does not have a DC path to
 ground
Netlist warning: Voltage Node (VINP_M3_1360__36) does not have a DC path to
 ground
Netlist warning: Voltage Node (NET8_M1_3120_568) does not have a DC path to
 ground
Netlist warning: Voltage Node (NET8_M4_2240_504) does not have a DC path to
 ground
Netlist warning: Voltage Node (NET8_M1_3760_212) does not have a DC path to
 ground
Netlist warning: Voltage Node (VINP_M1_1760_132) does not have a DC path to
 ground
Netlist warning: Voltage Node (VOUT_M2_2524_84) does not have a DC path to
 ground
Netlist warning: Voltage Node (NET8_M2_3040_252) does not have a DC path to
 ground
Netlist warning: Voltage Node (VSS_M3_560_328) does not have a DC path to
 ground
Netlist warning: Voltage Node (ID_M2_444_252) does not have a DC path to
 ground
Netlist warning: Voltage Node (VDD_M2_1760_0) does not have a DC path to
 ground
Netlist warning: Voltage Node (NET8_M3_3120_576) does not have a DC path to
 ground
Netlist warning: Voltage Node (NET8_M4_3720_420) does not have a DC path to
 ground
Netlist warning: Voltage Node (VOUT_M2_2924_504) does not have a DC path to
 ground
Netlist warning: Voltage Node (VOUT_M2_2604_336) does not have a DC path to
 ground
Netlist warning: Voltage Node (NET8_M2_2160_252) does not have a DC path to
 ground
Netlist warning: Voltage Node (VINP_M3_1600_252) does not have a DC path to
 ground
Netlist warning: Voltage Node (ID_M2_1564_252) does not have a DC path to
 ground
Netlist warning: Voltage Node (NET10_M3_960_288) does not have a DC path to
 ground
Netlist warning: Voltage Node (NET8_M2_3200_420) does not have a DC path to
 ground
Netlist warning: Voltage Node (VDD_M2_2000_336) does not have a DC path to
 ground
Netlist warning: Voltage Node (NET10_M2_960_336) does not have a DC path to
 ground
Netlist warning: Voltage Node (NET10_M3_1280_248) does not have a DC path to
 ground
Netlist warning: Voltage Node (VOUT_M2_1280_504) does not have a DC path to
 ground
Netlist warning: Voltage Node (ID_M2_1644_252) does not have a DC path to
 ground
[...]
 ground
Netlist warning: Voltage Node (NET10_M2_3004_588) does not have a DC path to
 ground
Netlist warning: Voltage Node (VSS_M2_560_168) does not have a DC path to
 ground
Netlist warning: Voltage Node (NET10_M2_2924_588) does not have a DC path to
 ground
Netlist warning: Voltage Node (VDD_M2_3920_168) does not have a DC path to
 ground
Netlist warning: Voltage Node (NET10_M2_2844_588) does not have a DC path to
 ground
Netlist warning: Voltage Node (VINP_M1_1760_568) does not have a DC path to
 ground
Netlist warning: Voltage Node (NET10_M2_2764_588) does not have a DC path to
 ground
Netlist warning: Voltage Node (VOUT_M2_3404_336) does not have a DC path to
 ground
Netlist warning: Voltage Node (NET10_M2_2604_588) does not have a DC path to
 ground
Netlist warning: Voltage Node (NET10_M2_2524_588) does not have a DC path to
 ground
Netlist warning: Voltage Node (ID_M2_2764_504) does not have a DC path to
 ground
Netlist warning: Voltage Node (VINP_M2_3244_252) does not have a DC path to
 ground
Netlist warning: Voltage Node (NET8_M2_3520_252) does not have a DC path to
 ground
Netlist warning: Voltage Node (NET8_M2_960_420) does not have a DC path to
 ground
Netlist warning: Voltage Node (NET10_M2_1724_588) does not have a DC path to
 ground
Netlist warning: Voltage Node (NET10_M2_1564_588) does not have a DC path to
 ground
Netlist warning: Voltage Node (NET10_M2_1484_588) does not have a DC path to
 ground
Netlist warning: Voltage Node (NET8_M2_3920_336) does not have a DC path to
 ground
Netlist warning: Voltage Node (NET10_M2_1324_588) does not have a DC path to
 ground
Netlist warning: Voltage Node (NET10_M2_924_588) does not have a DC path to
 ground
Netlist warning: Voltage Node (NET10_M3_960_416) does not have a DC path to
 ground
Netlist warning: Voltage Node (NET8_M2_1520_420) does not have a DC path to
 ground
Netlist warning: Voltage Node (NET10_M2_3564_168) does not have a DC path to
 ground
Netlist warning: Voltage Node (NET10_M2_844_588) does not have a DC path to
 ground
Netlist warning: Voltage Node (VDD_M1_3920_748) does not have a DC path to
 ground
Netlist warning: Voltage Node (VOUT_M2_1680_504) does not have a DC path to
 ground
Netlist warning: Voltage Node (NET10_M2_764_588) does not have a DC path to
 ground
Netlist warning: Voltage Node (VSS_M2_2924_420) does not have a DC path to
 ground
Netlist warning: Voltage Node (ID_M2_700_0) does not have a DC path to ground
Netlist warning: Voltage Node (VOUT_M2_3236_504) does not have a DC path to
 ground
Netlist warning: Voltage Node (NET8_M1_3760_462) does not have a DC path to
 ground
Netlist warning: Voltage Node (VOUT_M2_3200_504) does not have a DC path to
 ground
Netlist warning: Voltage Node (VOUT_M2_2960_504) does not have a DC path to
 ground
Netlist warning: Voltage Node (VOUT_M2_2880_504) does not have a DC path to
 ground
Netlist warning: Voltage Node (VDD_M2_3760_168) does not have a DC path to
 ground
Netlist warning: Voltage Node (VINP_M2_2684_252) does not have a DC path to
 ground
Netlist warning: Voltage Node (VOUT_M2_2800_504) does not have a DC path to
 ground
Netlist warning: Voltage Node (VSS_M1_960_462) does not have a DC path to
 ground
Netlist warning: Voltage Node (VOUT_M2_2640_504) does not have a DC path to
 ground
Netlist warning: Voltage Node (NET10_M2_3804_336) does not have a DC path to
 ground
Netlist warning: Voltage Node (VSS_M3_560_408) does not have a DC path to
 ground
Netlist warning: Voltage Node (VOUT_M2_2480_504) does not have a DC path to
 ground
Netlist warning: Voltage Node (VOUT_M2_2960_84) does not have a DC path to
 ground
Netlist warning: Voltage Node (NET10_M2_2364_588) does not have a DC path to
 ground
Netlist warning: Voltage Node (VOUT_M2_2400_504) does not have a DC path to
 ground
Netlist warning: Voltage Node (VDD_M2_2960_0) does not have a DC path to
 ground
Netlist warning: Voltage Node (VOUT_M2_2320_504) does not have a DC path to
 ground
Netlist warning: Voltage Node (VDD_M2_2080_168) does not have a DC path to
 ground
Netlist warning: Voltage Node (VOUT_M2_2240_504) does not have a DC path to
 ground
Netlist warning: Voltage Node (VINN_M1_2400_648) does not have a DC path to
 ground
Netlist warning: Voltage Node (VOUT_M2_2160_504) does not have a DC path to
 ground
Netlist warning: Voltage Node (VOUT_M2_2080_504) does not have a DC path to
 ground
Netlist warning: Voltage Node (VDD_M2_1440_168) does not have a DC path to
 ground
Netlist warning: Voltage Node (VOUT_M2_1840_504) does not have a DC path to
 ground
Netlist warning: Voltage Node (NET8_M2_3280_420) does not have a DC path to
 ground
Netlist warning: Voltage Node (VSS_M2_764_168) does not have a DC path to
 ground
Netlist warning: Voltage Node (VOUT_M2_1760_504) does not have a DC path to
 ground
Netlist warning: Voltage Node (VOUT_M2_1200_504) does not have a DC path to
 ground
Netlist warning: Voltage Node (VOUT_M2_880_504) does not have a DC path to
 ground
Netlist warning: Voltage Node (ID_M1_1040_488) does not have a DC path to
 ground
Netlist warning: Voltage Node (NET8_M2_3200_252) does not have a DC path to
 ground
Netlist warning: Voltage Node (VOUT_M2_800_504) does not have a DC path to
 ground
Netlist warning: Voltage Node (NET10_M1_2320_588) does not have a DC path to
 ground
Netlist warning: Voltage Node (NET10_M2_1324_168) does not have a DC path to
 ground
Netlist warning: Voltage Node (VOUT_M2_400_504) does not have a DC path to
 ground
Netlist warning: Voltage Node (VINN_M2_3004_504) does not have a DC path to
 ground
Netlist warning: Voltage Node (VINN_M2_2924_504) does not have a DC path to
 ground
Netlist warning: Voltage Node (VINN_M2_2764_504) does not have a DC path to
 ground
Netlist warning: Voltage Node (VINP_M2_3484_252) does not have a DC path to
 ground
Netlist warning: Voltage Node (ID_M2_1564_504) does not have a DC path to
 ground
Netlist warning: Voltage Node (ID_M2_1164_252) does not have a DC path to
 ground
Netlist warning: Voltage Node (VINN_M2_2604_504) does not have a DC path to
 ground
Netlist warning: Voltage Node (VINN_M2_2444_504) does not have a DC path to
 ground
Netlist warning: Voltage Node (NET8_M1_3120_496) does not have a DC path to
 ground
Netlist warning: Voltage Node (ID_M2_1644_504) does not have a DC path to
 ground
Netlist warning: Voltage Node (VINN_M2_2364_504) does not have a DC path to
 ground
Netlist warning: Voltage Node (ID_M2_2684_504) does not have a DC path to
 ground
Netlist warning: Voltage Node (VINN_M2_2284_504) does not have a DC path to
 ground
Netlist warning: Voltage Node (VOUT_M2_2480_84) does not have a DC path to
 ground
Netlist warning: Voltage Node (ID_M2_3004_504) does not have a DC path to
 ground
Netlist warning: Voltage Node (NET8_M2_3724_420) does not have a DC path to
 ground
Netlist warning: Voltage Node (ID_M2_2924_504) does not have a DC path to
 ground
Netlist warning: Voltage Node (ID_M2_2604_504) does not have a DC path to
 ground
Netlist warning: Voltage Node (ID_M2_2524_504) does not have a DC path to
 ground
Netlist warning: Voltage Node (ID_M2_2204_504) does not have a DC path to
 ground
Netlist warning: Voltage Node (NET10_M1_1680_168) does not have a DC path to
 ground
Netlist warning: Voltage Node (VSS_M2_1324_168) does not have a DC path to
 ground
Netlist warning: Voltage Node (NET8_M2_2960_252) does not have a DC path to
 ground
Netlist warning: Voltage Node (VSS_M3_560_132) does not have a DC path to
 ground
Netlist warning: Voltage Node (ID_M2_2124_504) does not have a DC path to
 ground
Netlist warning: Voltage Node (VDD_M2_3564_420) does not have a DC path to
 ground
Netlist warning: Voltage Node (ID_M2_1964_504) does not have a DC path to
 ground
Netlist warning: Voltage Node (VDD_M1_3920_416) does not have a DC path to
 ground
Netlist warning: Voltage Node (ID_M2_1804_504) does not have a DC path to
 ground
Netlist warning: Voltage Node (VSS_M2_1404_168) does not have a DC path to
 ground
Netlist warning: Voltage Node (ID_M2_1404_504) does not have a DC path to
 ground
Netlist warning: Voltage Node (ID_M2_1324_504) does not have a DC path to
 ground
Netlist warning: Voltage Node (ID_M2_1244_504) does not have a DC path to
 ground
Netlist warning: Voltage Node (VDD_M3_3360_441) does not have a DC path to
 ground
Netlist warning: Voltage Node (ID_M2_1164_504) does not have a DC path to
 ground
Netlist warning: Voltage Node (ID_M2_844_504) does not have a DC path to
 ground
Netlist warning: Voltage Node (VSS_M2_524_420) does not have a DC path to
 ground
Netlist warning: Voltage Node (ID_M2_764_504) does not have a DC path to
 ground
Netlist warning: Voltage Node (NET8_M4_2880_504) does not have a DC path to
 ground
Netlist warning: Voltage Node (ID_M2_684_504) does not have a DC path to
 ground
Netlist warning: Voltage Node (ID_M2_604_504) does not have a DC path to
 ground
Netlist warning: Voltage Node (ID_M2_524_504) does not have a DC path to
 ground
Netlist warning: Voltage Node (VINP_M3_1360_288) does not have a DC path to
 ground
Netlist warning: Voltage Node (VDD_M2_3724_420) does not have a DC path to
 ground
Netlist warning: Voltage Node (VINP_M1_1760_408) does not have a DC path to
 ground
Netlist warning: Voltage Node (ID_M2_444_504) does not have a DC path to
 ground
Netlist warning: Voltage Node (VDD_M2_1680_168) does not have a DC path to
 ground
Netlist warning: Voltage Node (ID_M2_364_504) does not have a DC path to
 ground
Netlist warning: Voltage Node (NET8_M2_3680_420) does not have a DC path to
 ground
Netlist warning: Voltage Node (VOUT_M2_1600_504) does not have a DC path to
 ground
Netlist warning: Voltage Node (NET8_M2_3600_420) does not have a DC path to
 ground
Netlist warning: Voltage Node (VSS_M2_684_168) does not have a DC path to
 ground
Netlist warning: Voltage Node (VSS_M2_3244_168) does not have a DC path to
 ground
Netlist warning: Voltage Node (VDD_M2_3484_336) does not have a DC path to
 ground
Netlist warning: Voltage Node (NET8_M2_3440_420) does not have a DC path to
 ground
Netlist warning: Voltage Node (NET8_M1_1840_462) does not have a DC path to
 ground
Netlist warning: Voltage Node (VOUT_M2_720_504) does not have a DC path to
 ground
Netlist warning: Voltage Node (NET8_M2_3360_420) does not have a DC path to
 ground
Netlist warning: Voltage Node (VSS_M2_524_168) does not have a DC path to
 ground
Netlist warning: Voltage Node (NET8_M2_3120_420) does not have a DC path to
 ground
Netlist warning: Voltage Node (NET8_M2_2800_420) does not have a DC path to
 ground
Netlist warning: Voltage Node (NET8_M2_2640_420) does not have a DC path to
 ground
Netlist warning: Voltage Node (NET8_M2_2480_420) does not have a DC path to
 ground
Netlist warning: Voltage Node (NET8_M2_3484_336) does not have a DC path to
 ground
Netlist warning: Voltage Node (NET_M2_M1_X0_Y0_D) does not have a DC path to
 ground
Netlist warning: Voltage Node (VOUT_M3_2640_252) does not have a DC path to
 ground
Netlist warning: Voltage Node (NET8_M2_2240_420) does not have a DC path to
 ground
Netlist warning: Voltage Node (NET8_M2_1600_420) does not have a DC path to
 ground
Netlist warning: Voltage Node (VDD_M2_720_168) does not have a DC path to
 ground
Netlist warning: Voltage Node (NET8_M2_2240_252) does not have a DC path to
 ground
Netlist warning: Voltage Node (NET10_M3_960_408) does not have a DC path to
 ground
Netlist warning: Voltage Node (NET8_M2_2080_420) does not have a DC path to
 ground
Netlist warning: Voltage Node (VSS_M2_444_420) does not have a DC path to
 ground
Netlist warning: Voltage Node (NET8_M2_2000_420) does not have a DC path to
 ground
Netlist warning: Voltage Node (NET8_M2_1920_420) does not have a DC path to
 ground
Netlist warning: Voltage Node (VDD_M2_1440_336) does not have a DC path to
 ground
Netlist warning: Voltage Node (VOUT_M3_2400_0) does not have a DC path to
 ground
Netlist warning: Voltage Node (NET8_M2_1200_420) does not have a DC path to
 ground
Netlist warning: Voltage Node (NET8_M2_1120_420) does not have a DC path to
 ground
Netlist warning: Voltage Node (VINP_M1_1760_728) does not have a DC path to
 ground
Netlist warning: Voltage Node (VOUT_M2_2844_84) does not have a DC path to
 ground
Netlist warning: Voltage Node (NET8_M2_1040_420) does not have a DC path to
 ground
Netlist warning: Voltage Node (VOUT_M1_2480_542) does not have a DC path to
 ground
Netlist warning: Voltage Node (VINP_M3_1920_288) does not have a DC path to
 ground
Netlist warning: Voltage Node (NET8_M2_800_420) does not have a DC path to
 ground
Netlist warning: Voltage Node (VDD_M1_3200_408) does not have a DC path to
 ground
Netlist warning: Voltage Node (ID_M1_480_748) does not have a DC path to
 ground
Netlist warning: Voltage Node (NET10_M2_2844_168) does not have a DC path to
 ground
Netlist warning: Voltage Node (VOUT_M2_2400_0) does not have a DC path to
 ground
Netlist warning: Voltage Node (NET8_M2_720_420) does not have a DC path to
 ground
Netlist warning: Voltage Node (NET8_M2_3004_252) does not have a DC path to
 ground
Netlist warning: Voltage Node (NET10_M2_1884_588) does not have a DC path to
 ground
Netlist warning: Voltage Node (NET10_M2_684_588) does not have a DC path to
 ground
Netlist warning: Voltage Node (NET8_M2_640_420) does not have a DC path to
 ground
Netlist warning: Voltage Node (ID_M2_2140_0) does not have a DC path to ground
Netlist warning: Voltage Node (NET8_M2_3840_420) does not have a DC path to
 ground
Netlist warning: Voltage Node (NET8_M1_3120_728) does not have a DC path to
 ground
Netlist warning: Voltage Node (VDD_M2_3644_420) does not have a DC path to
 ground
Netlist warning: Voltage Node (VDD_M2_3404_420) does not have a DC path to
 ground
Netlist warning: Voltage Node (VDD_M3_3760_441) does not have a DC path to
 ground
Netlist warning: Voltage Node (NET10_M3_960_248) does not have a DC path to
 ground
Netlist warning: Voltage Node (VINP_M2_1600_0) does not have a DC path to
 ground
Netlist warning: Voltage Node (VDD_M2_3164_420) does not have a DC path to
 ground
Netlist warning: Voltage Node (VINP_M2_3840_420) does not have a DC path to
 ground
Netlist warning: Voltage Node (VINP_M2_3644_420) does not have a DC path to
 ground
Netlist warning: Voltage Node (VINP_M2_3564_420) does not have a DC path to
 ground
Netlist warning: Voltage Node (VINP_M2_3484_420) does not have a DC path to
 ground
Netlist warning: Voltage Node (ID_M1_400_328) does not have a DC path to
 ground
Netlist warning: Voltage Node (NET8_M2_1440_420) does not have a DC path to
 ground
Netlist warning: Voltage Node (VINP_M2_3244_420) does not have a DC path to
 ground
***** Device Count Summary ...
       C level 1 (Capacitor)                  2869
       I level 1 (Independent Current Source)    1
       M level 14 (BSIM4)                       12
       R level 1 (Resistor)                   1570
       V level 1 (Independent Voltage Source)    3
       -------------------------------------------
       Total Devices                          4455
***** Setting up matrix structure...
***** Number of Unknowns = 1649
***** Initializing...

Netlist warning: Numerically singular matrix found by Amesos, returning zero
 solution to nonlinear solver!
Netlist warning: Numerically singular matrix found by Amesos, returning zero
 solution to nonlinear solver!
Netlist warning: Numerically singular matrix found by Amesos, returning zero
 solution to nonlinear solver!
Netlist warning: Numerically singular matrix found by Amesos, returning zero
 solution to nonlinear solver!
Netlist warning: Numerically singular matrix found by Amesos, returning zero
 solution to nonlinear solver!
Netlist warning: Numerically singular matrix found by Amesos, returning zero
 solution to nonlinear solver!
Netlist warning: Numerically singular matrix found by Amesos, returning zero
 solution to nonlinear solver!
Netlist warning: Numerically singular matrix found by Amesos, returning zero
 solution to nonlinear solver!
Netlist warning: Numerically singular matrix found by Amesos, returning zero
 solution to nonlinear solver!
Netlist warning: Numerically singular matrix found by Amesos, returning zero
 solution to nonlinear solver!
Netlist warning: Numerically singular matrix found by Amesos, returning zero
 solution to nonlinear solver!
Netlist warning: Numerically singular matrix found by Amesos, returning zero
 solution to nonlinear solver!
Netlist warning: Numerically singular matrix found by Amesos, returning zero
 solution to nonlinear solver!
Netlist warning: Numerically singular matrix found by Amesos, returning zero
 solution to nonlinear solver!
Netlist warning: Numerically singular matrix found by Amesos, returning zero
 solution to nonlinear solver!
Netlist warning: Numerically singular matrix found by Amesos, returning zero
 solution to nonlinear solver!
Netlist warning: Numerically singular matrix found by Amesos, returning zero
 solution to nonlinear solver!
Netlist warning: Numerically singular matrix found by Amesos, returning zero
 solution to nonlinear solver!
Netlist warning: Numerically singular matrix found by Amesos, returning zero
 solution to nonlinear solver!
Netlist warning: Numerically singular matrix found by Amesos, returning zero
 solution to nonlinear solver!
Netlist warning: Numerically singular matrix found by Amesos, returning zero
 solution to nonlinear solver!
Netlist warning: Numerically singular matrix found by Amesos, returning zero
 solution to nonlinear solver!
Netlist warning: Numerically singular matrix found by Amesos, returning zero
 solution to nonlinear solver!
Netlist warning: Numerically singular matrix found by Amesos, returning zero
 solution to nonlinear solver!
Netlist warning: Numerically singular matrix found by Amesos, returning zero
 solution to nonlinear solver!
Netlist error: Solving for DC operating point failed! Cannot continue AC
 analysis

***** Solution Summary *****
	Number Successful Steps Taken:		0
	Number Failed Steps Attempted:		0
	Number Jacobians Evaluated:		85
	Number Iteration Matrix Factorizations:	0
	Number Linear Solves:			85
	Number Failed Linear Solves:		25
	Number Residual Evaluations:		138
	Number Nonlinear Convergence Failures:	1
	Total Residual Load Time:		0.0311792 seconds
	Total Jacobian Load Time:		0.0228517 seconds
	Total Linear Solution Time:		0.063066 seconds


***** Total Simulation Solvers Run Time: 0.167045 seconds
***** Total Elapsed Run Time:            0.414045 seconds
*****
***** End of Xyce(TM) Simulation
*****

Timing summary of 1 processor
                 Stats                   Count       CPU Time              Wall Time
---------------------------------------- ----- --------------------- ---------------------
Xyce                                         1        0.410 (100.0%)        0.414 (100.0%)
  Analysis                                   1        0.167 (40.71%)        0.167 (40.31%)
    AC                                       1        0.167 (40.67%)        0.167 (40.27%)
      Residual                             138        0.032 ( 7.70%)        0.032 ( 7.63%)
      Jacobian                              85        0.023 ( 5.62%)        0.023 ( 5.58%)
      Linear Solve                          85        0.064 (15.57%)        0.064 (15.42%)
  Netlist Import                             1        0.201 (48.95%)        0.205 (49.44%)
    Parse Context                            1        0.017 ( 4.25%)        0.017 ( 4.21%)
    Distribute Devices                       1        0.154 (37.56%)        0.154 (37.19%)
    Verify Devices                           1        0.000 (<0.01%)        0.000 (<0.01%)
    Instantiate                              1        0.027 ( 6.65%)        0.031 ( 7.56%)
  Late Initialization                        1        0.041 ( 9.96%)        0.041 ( 9.87%)
    Global Indices                           1        0.026 ( 6.28%)        0.026 ( 6.22%)
  Setup Matrix Structure                     1        0.011 ( 2.58%)        0.011 ( 2.55%)

