
*****
***** Welcome to the Xyce(TM) Parallel Electronic Simulator
*****
***** This is version Xyce Release 6.11.1-opensource
***** Date: Sat Nov 23 04:23:47 UTC 2019


***** Executing netlist five_transistor_ota.cir

***** Reading and parsing netlist...
Netlist error in file five_transistor_ota.cir at or near line 2147
 Only ERROR, EQN/PARAM, MIN, MAX and PP measure types are supported for AC
 measure mode
Netlist warning in file five_transistor_ota.cir at or near line 2147
 Unrecognized dot line will be ignored
Simulation aborted due to error.  There are 0 MSG_FATAL errors and 1 MSG_ERROR
 errors
*** Xyce Abort ***
