
*****
***** Welcome to the Xyce(TM) Parallel Electronic Simulator
*****
***** This is version Xyce Release 6.11.1-opensource
***** Date: Sun Nov 17 18:10:23 UTC 2019


***** Executing netlist five_transistor_ota.cir

***** Reading and parsing netlist...
***** Setting up topology...

Netlist warning: Voltage Node (VINN) connected to only 1 device Terminal
Netlist warning: Voltage Node (GND!) does not have a DC path to ground
***** Device Count Summary ...
       C level 1 (Capacitor)                  1209
       I level 1 (Independent Current Source)    1
       M level 14 (BSIM4)                       12
       R level 1 (Resistor)                    746
       V level 1 (Independent Voltage Source)    3
       -------------------------------------------
       Total Devices                          1971
***** Setting up matrix structure...
***** Number of Unknowns = 767
***** Initializing...

------------------------------------------------------------
Operating point information:
Number of BSIM4 models: 2
          name           N_50N          P_50N
          type            NMOS           PMOS
         level              54             54
        VERSION          4.6.1          4.6.1
       PARAMCHK              1              1
        TEMPMOD              0              0
         IGCMOD              1              1
        FNOIMOD              1              1
         GEOMOD              0              0
         PERMOD              1              1
       RGATEMOD              1              1
         MOBMOD              0              0
         RDSMOD              0              0
         DIOMOD              1              1
             KF              0              0
          NTNOI              1              1
          RNOIA          0.577          0.577
           NOIC       8.75e+09       8.75e+09
           NOIB      3.125e+26        1.5e+25
           NOIA       6.25e+41      6.188e+40
         PKU0WE              0              0
          PK2WE              0              0
       PKVTH0WE              0              0
          WK2WE              0              0
       WKVTH0WE              0              0
          LK2WE              0              0
       LKVTH0WE              0              0
          KU0WE              0              0
           K2WE              0              0
        KVTH0WE              0              0
            WEC              0              0
            WEB              0              0
        LODETA0              1              1
         STETA0              0              0
           STK2              0              0
         PKVTH0              0              0
         WKVTH0              0              0
         LKVTH0              0              0
           PKU0              0              0
        WLODVTH              0              0
           TKU0              0              0
          KVTH0              0              0
          KVSAT              0              0
         PTVOFF              0              0
     PTVFBSDOFF              0              0
      PVFBSDOFF              0              0
            PXN              0              0
        PLAMBDA              0              0
        PXRCRG2              0              0
        PVOFFCV              0              0
          PMOIN              0              0
         PVFBCV              0              0
       PPOXEDGE              0              0
       PEIGBINV              0              0
          PNIGC              0              0
       PBIGBINV              0              0
       PCIGBACC              0              0
       PBIGBACC              0              0
       PAIGBACC              0              0
        LGAMMA2              0              0
           PK3B              0              0
         PPDITS              0              0
       LCKAPPAS              0              0
       LAIGBINV              0              0
            XGW              0              0
          LCDSC              0              0
        RBSDBYW              0              0
       RBSDBXNF              0              0
        WGAMMA1              0              0
        RBSDBXW              0              0
            UA1          1e-09         -1e-09
           LKT1              0              0
        LFPROUT              0              0
           PUB1              0              0
           KT1L              0              0
        RBPBXNF              0              0
         RBPBXW              0              0
           ETAB              0              0
         FPROUT            0.2            0.2
          RBPD0             50             50
       EPSRGATE           11.7           11.7
        VTSSWGS             10             10
            LUA              0              0
         PBSWGD              1              1
         WDVTP0              0              0
       WPOXEDGE              0              0
       TNJTSSWG              0              0
        RDSWMIN              0              0
          WNSUB              0              0
        BINUNIT              1              1
        XTSSWGS           0.02           0.02
          WKETA              0              0
           XTSS           0.02           0.02
        PDIBLCB         -0.005        3.4e-08
           XTID              3              3
           PVBX              0              0
           VTSS             10             10
           NJTS             20             20
        LGAMMA1              0              0
          RBPS0             50             50
         LCDSCB              0              0
           RBPB              5              5
         WDELTA              0              0
            BVD             10             10
       IJTHSREV          0.001          0.001
          WETAB              0              0
          PDVT1              0              0
         PPIGCD              0              0
       IJTHDREV          0.001          0.001
       RBODYMOD              1              1
           WLOD              0              0
       NJTSSWGD             20             20
    CVCHARGEMOD              0              0
            CIT              0              0
        POXEDGE              1              1
          MJSWS           0.33           0.33
        NIGBACC              1              1
            WLN              1              1
             AT          53000          33000
           LUD1              0              0
           NTOX              1              1
          DVT2W              0              0
           NIGC              1              1
            VFB          -0.55           0.55
             EF              1              1
        CIGBINV          0.004          0.004
         RBSBY0            100            100
        CIGBACC          0.002          0.002
          TCJSW          0.001          0.001
            VBX              0              0
            PXT              0              0
           CIGD          0.002         0.0008
           CIGS          0.002         0.0008
        AIGBACC          0.012          0.012
         RBPBX0            100            100
           BIGS         0.0028         0.0012
         LDVT2W              0              0
        LALPHA1              0              0
          DMCGT              0              0
         TNJTSD              0              0
           AIGS          0.017         0.0087
           LVFB              0              0
          AIGSD          0.017         0.0087
           CIGC          0.002         0.0008
          CGISL         0.0002         0.0002
          PBSWS              1              1
      TNJTSSWGD              0              0
          AGISL         0.0002         0.0002
          EGIDL            0.8            0.8
          PVOFF              0              0
         ALPHA0          0.074          0.074
           LRSW              0              0
        WALPHA0              0              0
            LA1              0              0
          RBPSL              0              0
           PCLM           0.18           0.55
           WKT1              0              0
            DWC          5e-09          5e-09
        CKAPPAD           0.02            0.5
        WALPHA1              0              0
         VTSSWD             10             10
        VTSSWGD             10             10
             CF    1.24392e-10    1.24392e-10
             B0         -1e-20         -1e-20
        NJTSSWD             20             20
        NJTSSWG             20             20
            WWL              0              0
            WWN              1              1
             WW              0              0
           AIGD          0.017         0.0087
          WDVT1              0              0
            DWB              0              0
         LCIGSD              0              0
             WR              1              1
           LMAX              1              1
       RBSDBYNF              0              0
            DWJ              0              0
            LWC              0              0
        LXRCRG2              0              0
             LW              0              0
          LPVAG              0              0
        TNOIMOD              0              0
            LLN              1              1
          LCGSL              0              0
             LL              0              0
          PVSAT              0              0
       PAIGBINV              0              0
        LINTNOI              0              0
             LP          1e-08          1e-08
            RSH              3              3
           PHIG           4.05           4.05
            WXN              0              0
           AIGC          0.017           0.69
           MOIN             15             15
         MINVCV              0              0
           DTOX              0              0
          LCIGD              0              0
            LA0              0              0
        RBPBYNF              0              0
         LDVTP0              0              0
         RBDBX0            100            100
          PVTH0              0              0
          CDSCD              0        6.1e-08
            TCJ          0.001          0.001
           VOFF          -0.15          -0.15
           PRWG              0       3.22e-08
            UTE           -1.5           -1.5
          VOFFL              0              0
            CLE            0.6            0.6
           VTH0           0.22          -0.22
           TNOM             27             27
          RBPSW              0              0
           JSWS          1e-11          1e-11
       WPDIBLC2              0              0
          LNIGC              0              0
         PDVTP0              0              0
           DVT2         -0.032         -0.032
          LPHIN              0              0
             XJ          2e-08          2e-08
            KT2         -0.042         -0.052
             W0        2.5e-06        2.5e-06
           MINV           0.05           0.05
             UA        1.6e-10        1.6e-09
            PXJ              0              0
         RSWMIN              0              0
             K1           0.35           0.39
            BVS             10             10
          SAREF          1e-06          1e-06
            PEU              0              0
            VBM             -3             -3
           WVBM              0              0
           PUTE              0              0
           LVBM              0              0
            K3B              0              0
           LUA1              0              0
            UD1              0              0
          LKETA              0              0
           XTIS              3              3
           LNSD              0              0
       PNIGBINV              0              0
         RBDBY0            100            100
             XT       1.55e-07       1.55e-07
            LK3              0              0
          CIGSD          0.002         0.0008
       PPDIBLCB              0              0
         PDITSL        2.3e+06        2.3e+06
          BGISL        2.1e+09        2.1e+09
           CGDO      6.238e-10       7.43e-10
          GBMIN          1e-10          1e-10
            WLC              0              0
             UD              0              0
         EPSROX            3.9            3.9
            PA1              0              0
          DVTP1           0.05           0.05
            AGS          1e-20          1e-20
         BG0SUB           1.16           1.16
         XTSSWD           0.02           0.02
        AIGBINV          0.014          0.014
         TOXREF        1.4e-09        1.4e-09
            DWG              0              0
          DROUT           0.45           0.56
         WVFBCV              0              0
           ADOS              1              1
            LW0              0              0
          EASUB           4.05           4.05
           TOXM        1.4e-09        1.4e-09
             K2           0.05           0.05
            JSS         0.0001         0.0001
         NI0SUB       1.45e+10       1.45e+10
          LETAB              0              0
          LDVT1              0              0
            LEU              0              0
           RBPS             15             15
        NIGBINV              3              3
         TCJSWG          0.001          0.001
         VDDEOT            1.5           -1.5
          NJTSD             20             20
          PLPEB              0              0
             K3              0              0
            WK1              0              0
          CDSCB              0              0
          LAIGC              0              0
        BIGBACC         0.0028         0.0028
        PDIBLC2          0.022         0.0055
         LPDITS              0              0
         WDROUT              0              0
          PPCLM              0              0
          TNOIA            1.5            1.5
            LAT              0              0
       IJTHDFWD           0.01           0.01
          DVT1W              0              0
       WNIGBACC              0              0
           WWLC              0              0
            WWR              0              0
       WEIGBINV              0              0
           CGSO      6.238e-10       7.43e-10
            PUB              0              0
           LCIT              0              0
            LWL              0              0
           WUD1              0              0
             A1              0              0
            WK3              0              0
           KETA           0.04         -0.047
           LDWB              0              0
        NFACTOR            1.2              2
         RBPSNF              0              0
          AGIDL         0.0002         0.0002
           LAGS              0              0
            XGL              0              0
            LXN              0              0
             UB        1.1e-17          8e-18
           DVT0            2.8            3.9
           PHIN              0              0
          WPRWB              0              0
          DLCIG        1.2e-08        1.2e-08
           RSHG            0.4            0.4
          RBPDL              0              0
            WA0              0              0
           TOXE        1.4e-09        1.4e-09
            JSD         0.0001         0.0001
            PWR              0              0
         PBETA0              0              0
        JTSSWGS              0              0
            LA2              0              0
          WETA0              0              0
            LXJ              0              0
             XL              0              0
       LNFACTOR              0              0
            LUD              0              0
        EPSRSUB           11.7           11.7
           RBSB             15             15
       WNFACTOR              0              0
         PAGIDL              0              0
           TOXP          7e-10          7e-10
            NSD          1e+20          1e+20
         WEGISL              0              0
         PCDSCB              0              0
           NSUB          6e+16          6e+16
         RBSBX0            100            100
        EIGBINV            1.1            1.1
        TBGASUB       0.000702       0.000702
          WLPE0              0              0
           WMAX              1              1
        TBGBSUB           1108           1108
         LCDSCD              0              0
           RBPD             15             15
             A2              1              1
          PDSUB              0              0
         LAMBDA              0              0
       LNIGBACC              0              0
          LNDEP              0              0
         PDVT1W              0              0
          CGIDL         0.0002         0.0002
            LLP              0              0
           CGBO       2.56e-11       2.56e-11
           CGSL      2.495e-10          1e-14
           PPRT              0              0
             U0          0.032         0.0095
           VSAT         110000          90000
          DELTA           0.01          0.014
           RDSW            150            250
          PAIGD              0              0
           LINT        1.2e-08        1.2e-08
           JTSD              0              0
            WU0              0              0
            RDW            150            160
          WNTOX              0              0
            EOT        1.5e-09        1.5e-09
             A0              2            1.2
        LALPHA0              0              0
         CAPMOD              2              2
           PRWB        6.8e-11        6.8e-11
           XTSD           0.02           0.02
         RBPDNF              0              0
            PB0              0              0
            PRT              0              0
             UP              0              0
         PDITSD           0.23           0.23
         WKU0WE              0              0
           JSWD          1e-11          1e-11
          DVT0W              0              0
          WMOIN              0              0
           DSUB              2            0.7
         PCIGSD              0              0
            PU0              0              0
          WMINV              0              0
          MJSWD           0.33           0.33
           DVT1           0.52          0.635
             UC         -3e-11        4.6e-13
           LRDW              0              0
        PDIBLC1          0.028           0.03
         WPEMOD              0              0
           WDWB              0              0
          PKETA              0              0
          PNOFF              0              0
          PNTOX              0              0
          CJSWS          5e-10          5e-10
        WLAMBDA              0              0
           LPEB        2.3e-10        2.3e-10
        VOFFCVL              0              0
          NGATE          5e+20          5e+20
         JTSSWD              0              0
         XTSSWS           0.02           0.02
         PSCBE2          1e-07       9.58e-07
          LNSUB              0              0
         RBPBY0            100            100
         WCIGSD              0              0
        XTSSWGD           0.02           0.02
         ALPHA1          0.005          0.005
          LAIGS              0              0
           PVAG          1e-20          1e-20
         XRCRG1             12             12
          WCDSC              0              0
          PPVAG              0              0
          JSWGS          1e-10          1e-10
         WNGATE              0              0
        TNJTSSW              0              0
         RDWMIN              0              0
            PBS              1              1
            PA2              0              0
           WKU0              0              0
           LCLE              0              0
          DVTP0          1e-07          5e-09
         WTVOFF              0              0
            NJS              1              1
          PETA0              0              0
           RBDB             15             15
            LLC              0              0
           LKU0              0              0
        WMINVCV              0              0
            CJS         0.0005         0.0005
       TRNQSMOD              0              0
       VFBSDOFF              0              0
         PCGIDL              0              0
         PNGATE              0              0
           PVFB              0              0
         PDVTP1              0              0
           LWLC              0              0
          PDVT2              0              0
            NJD              1              1
           BIGC         0.0028         0.0012
          BIGSD         0.0028         0.0012
            PK2              0              0
            MJD            0.5            0.5
          PBSWD              1              1
         MJSWGD           0.33           0.33
          BGIDL        2.1e+09        2.1e+09
          WNIGC              0              0
        BIGBINV          0.004          0.004
          CJSWD          5e-10          5e-10
       LCIGBACC              0              0
          VFBCV             -1             -1
            TPB          0.005          0.005
            WLP              0              0
          TPBSW          0.005          0.005
          LVSAT              0              0
          WACDE              0              0
            MJS            0.5            0.5
          XPART              0              0
          LDVT0              0              0
        LVOFFCV              0              0
         PBSWGS              1              1
          EGISL            0.8            0.8
           ACDE              1              1
           LMIN              0              0
           NOFF            0.9            0.9
         NJTSSW             20             20
           DMCG              0              0
         RBPBXL              0              0
            UC1              0              0
          PPRWB              0              0
           DMCI              0              0
            UB1       -3.5e-19          2e-18
           DMDG              0              0
          BETA0             30             30
             XW              0              0
         XRCRG2              5              5
           LVBX              0              0
         LKU0WE              0              0
          LCIGC              0              0
            VTL         200000         200000
           WCLE              0              0
             LC          5e-09          5e-09
            LUB              0              0
         CJSWGD          5e-10          5e-10
            LXT              0              0
         CJSWGS          5e-10          5e-10
      TVFBSDOFF              0              0
          JSWGD          1e-10          1e-10
          WVOFF              0              0
         PEGISL              0              0
          NGCON              1              1
          PNSUB              0              0
          TVOFF              0              0
         WEGIDL              0              0
            LK1              0              0
            CJD         0.0005         0.0005
          LKT1L              0              0
          WBIGD              0              0
            LK2              0              0
          WDSUB              0              0
           LK3B              0              0
         LDVTP1              0              0
       LPDIBLC2              0              0
          LLPE0              0              0
            KU0              0              0
          LLPEB              0              0
            WA2              0              0
          LDVT2              0              0
         LDVT0W              0              0
         LDVT1W              0              0
           WDWG              0              0
         LDELTA              0              0
         LDROUT              0              0
          LDSUB              0              0
          LVTH0              0              0
        LLAMBDA              0              0
           LUB1              0              0
            LUC              0              0
           LUC1              0              0
            LU0              0              0
             XN              3              3
           LUTE              0              0
          LVOFF              0              0
          SCREF          1e-06          1e-06
        PXRCRG1              0              0
          LRDSW              0              0
          LPRWG              0              0
       PNFACTOR              0              0
          LPRWB              0              0
           LPRT              0              0
         LCGISL              0              0
           PRDW              0              0
          LETA0              0              0
          PETAB              0              0
           BDOS              1              1
          WNDEP              0              0
          LPCLM              0              0
             EU           1.67              1
       LPDIBLC1              0              0
           PUD1              0              0
       LPDIBLCB              0              0
        MTRLMOD              0              0
        LPDITSD              0              0
        LPSCBE1              0              0
            LWR              0              0
           LDWG              0              0
            LB0              0              0
            LB1              0              0
        PPDITSD              0              0
          LCGDL              0              0
       LCKAPPAD              0              0
            LCF              0              0
           LCLC              0              0
         LBETA0              0              0
          WAIGC              0              0
         LBGIDL              0              0
            PBD              1              1
            RSW            150            160
          WPRWG              0              0
         LCGIDL              0              0
            CLC          1e-07          1e-07
          LNTOX              0              0
          LNOFF              0              0
         LEGIDL              0              0
         LAGISL              0              0
         LBGISL              0              0
         LEGISL              0              0
       PCKAPPAD              0              0
          LBIGC              0              0
           PCLC              0              0
         LAIGSD              0              0
         WDVT2W              0              0
         LBIGSD              0              0
          LBIGS              0              0
         WAGISL              0              0
          XJBVS              1              1
          LCIGS              0              0
          LAIGD              0              0
            DLC        1.2e-08        1.2e-08
          LBIGD              0              0
       LAIGBACC              0              0
       LBIGBACC              0              0
           WRDW              0              0
       ACNQSMOD              0              0
       LBIGBINV              0              0
         PDROUT              0              0
         PSCBE1       8.14e+08       8.14e+08
          PRDSW              0              0
       LCIGBINV              0              0
        LLODVTH              0              0
       LNIGBINV              0              0
       LEIGBINV              0              0
         LPIGCD              0              0
       LPOXEDGE              0              0
         LVFBCV              0              0
          LACDE              0              0
          RNOIB         0.5164         0.5164
            PUC              0              0
          LMOIN              0              0
            KT1          -0.21          -0.19
        LXRCRG1              0              0
            WB1              0              0
          WVSAT              0              0
        PGAMMA2              0              0
            LWN              1              1
           LVTL              0              0
      LVFBSDOFF              0              0
     LTVFBSDOFF              0              0
          SBREF          1e-06          1e-06
           PVTL              0              0
         LTVOFF              0              0
         WCDSCB              0              0
          PACDE              0              0
         WCDSCD              0              0
           WCIT              0              0
            WXJ              0              0
        RBSDBYL              0              0
            WAT              0              0
           WAGS              0              0
         WBGIDL              0              0
        WXRCRG2              0              0
         VOFFCV           0.02           0.02
           PRSW              0              0
            WA1              0              0
           WNSD              0              0
           WUA1              0              0
         DLCIGD        1.2e-08        1.2e-08
          PBIGD              0              0
          WPHIN              0              0
        WGAMMA2              0              0
         LNGATE              0              0
            PK1              0              0
            PLP              0              0
          WKT1L              0              0
        WLODKU0              0              0
           WKT2              0              0
            WK2              0              0
         GAMMA1              0              0
          WVTH0              0              0
           WK3B              0              0
         PAIGSD              0              0
            WUP              0              0
           CGDL      2.495e-10          1e-14
           PKT1              0              0
            WW0              0              0
           JTSS              0              0
         WDVTP1              0              0
          WLPEB              0              0
          WDVT0              0              0
       TNJTSSWD              0              0
          WDVT2              0              0
          PCIGD              0              0
         WDVT0W              0              0
          PIGCD              1              1
         WDVT1W              0              0
        LLODKU0              0              0
            WUA              0              0
            WUB              0              0
       WCIGBINV              0              0
         MJSWGS           0.33           0.33
           WUB1              0              0
            WUC              0              0
           WUC1              0              0
            WUD              0              0
           WUTE              0              0
           WRSW              0              0
          WPCLM              0              0
        PFPROUT              0              0
        PALPHA1              0              0
        WFPROUT              0              0
         WPDITS              0              0
       PNIGBACC              0              0
            LUP              0              0
        WPDITSD              0              0
            PB1              0              0
           VTSD             10             10
          TNJTS              0              0
          LMINV              0              0
          PDITS            0.2            0.2
        WPSCBE1              0              0
          XJBVD              1              1
        WPSCBE2              0              0
          WCGDL              0              0
          WPVAG              0              0
          LODK2              1              1
          WCGSL              0              0
       WCKAPPAS              0              0
         JTSSWS              0              0
            WCF              0              0
           WCLC              0              0
         WAGIDL              0              0
        CKAPPAS           0.02            0.5
        LPSCBE2              0              0
         WCGIDL              0              0
          WBIGS              0              0
            PUA              0              0
         WBGISL              0              0
         IGBMOD              1              1
        JTSSWGD              0              0
         WCGISL              0              0
       PCIGBINV              0              0
          WBIGC              0              0
          WCIGC              0              0
          RBPDW              0              0
         WAIGSD              0              0
             B1              0              0
         TPBSWG          0.005          0.005
         WBIGSD              0              0
          WAIGS              0              0
          WCIGS              0              0
          WAIGD              0              0
          WCIGD              0              0
       WAIGBACC              0              0
           WPRT              0              0
       WBIGBACC              0              0
       WCKAPPAD              0              0
       WCIGBACC              0              0
       WAIGBINV              0              0
       WPDIBLC1              0              0
       WBIGBINV              0              0
         GAMMA2              0              0
       WNIGBINV              0              0
         WPIGCD              0              0
           WVFB              0              0
          WNOFF              0              0
        WXRCRG1              0              0
           WVTL              0              0
            WEU              0              0
             AF              1              1
           CDSC         0.0002       0.000258
      WVFBSDOFF              0              0
     WTVFBSDOFF              0              0
          PCDSC              0              0
           LPE0       5.75e-08       5.75e-08
         PCDSCD              0              0
            PAT              0              0
            PA0              0              0
           PAGS              0              0
         RBPBYW              0              0
           WMIN              0              0
          PNDEP              0              0
         VTSSWS             10             10
           PNSD              0              0
            WWC              0              0
         WBETA0              0              0
            PW0              0              0
       IJTHSFWD           0.01           0.01
          PPHIN              0              0
            WB0              0              0
        PGAMMA1              0              0
           PVBM              0              0
             EM        4.1e+07        4.1e+07
          PKT1L              0              0
           WINT          5e-09          5e-09
          PMINV              0              0
           PKT2              0              0
            PK3              0              0
          PLPE0              0              0
            WXT              0              0
          PDVT0              0              0
         PDVT0W              0              0
         PDVT2W              0              0
       PPDIBLC2              0              0
           PUA1              0              0
           PUC1              0              0
          WRDSW              0              0
           PCIT              0              0
            PUD              0              0
            PUP              0              0
           ETA0           0.15           0.15
        LMINVCV              0              0
        PMINVCV              0              0
          TNOIB            3.5            3.5
         LAGIDL              0              0
          PPRWG              0              0
         RBPBYL              0              0
        WVOFFCV              0              0
         PDELTA              0              0
       PPDIBLC1              0              0
        RBSDBXL              0              0
           NDEP        2.8e+18        2.8e+18
        PPSCBE1              0              0
        PPSCBE2              0              0
           BIGD         0.0028         0.0012
             WL              0              0
           PDWG              0              0
          PCGDL              0              0
           PDWB              0              0
            PCF              0              0
          PCGSL              0              0
          PCIGS              0              0
       PCKAPPAS              0              0
           PCLE              0              0
       WPDIBLCB              0              0
        PALPHA0              0              0
           WVBX              0              0
         PBGIDL              0              0
           LKT2              0              0
         PEGIDL              0              0
         PAGISL              0              0
         PBGISL              0              0
         PCGISL              0              0
          PAIGC              0              0
          PBIGC              0              0
          PCIGC              0              0
         PBIGSD              0              0
          PAIGS              0              0
          PBIGS              0              0

Number of BSIM4 instances: 12
          name X_M0_M3_M1_X0_Y0_0:MNX_M0_M3_M1_X0_Y0_1:MNX_M0_M3_M2_X1_Y0_0:MNX_M0_M3_M2_X1_Y0_1:MNX_M5_M4_M1_X0_Y0_0:MNX_M5_M4_M1_X0_Y0_1:MNX_M5_M4_M2_X1_Y0_0:MN
X_M5_M4_M2_X1_Y0_1:MNX_M1_M1_X0_Y0_0:MPX_M1_M1_X0_Y0_1:MPX_M2_M1_X0_Y0_0:MPX_M2_M1_X0_Y0_1:MP
         model           N_50N          N_50N          N_50N          N_50N          N_50N          N_50N          N_50N
          N_50N          P_50N          P_50N          P_50N          P_50N
            OFF              0              0              0              0              0              0              0
              0              0              0              0              0
            NRD              1              1              1              1              1              1              1
              1              1              1              1              1
           RBSB             15             15             15             15             15             15             15
             15             15             15             15             15
            SCC              0              0              0              0              0              0              0
              0              0              0              0              0
            SCA              0              0              0              0              0              0              0
              0              0              0              0              0
             AD        3.6e-13        3.6e-13        3.6e-13        3.6e-13        3.6e-13        3.6e-13        3.6e-13
        3.6e-13        7.2e-13        7.2e-13        7.2e-13        7.2e-13
              L          5e-08          5e-08          5e-08          5e-08          5e-08          5e-08          5e-08
          5e-08          1e-07          1e-07          1e-07          1e-07
           RBPD             15             15             15             15             15             15             15
             15             15             15             15             15
        RGEOMOD              0              0              0              0              0              0              0
              0              0              0              0              0
            SCB              0              0              0              0              0              0              0
              0              0              0              0              0
             SC              0              0              0              0              0              0              0
              0              0              0              0              0
             NF              1              1              1              1              1              1              1
              1              1              1              1              1
             SB              0              0              0              0              0              0              0
              0              0              0              0              0
             AS              0              0              0              0              0              0              0
              0              0              0              0              0
             PD        1.5e-07        1.5e-07        1.5e-07        1.5e-07        1.5e-07        1.5e-07        1.5e-07
        1.5e-07          3e-07          3e-07          3e-07          3e-07
              M              1              1              1              1              1              1              1
              1              1              1              1              1
           TEMP             27             27             27             27             27             27             27
             27             27             27             27             27
             SA              0              0              0              0              0              0              0
              0              0              0              0              0
            NRS              1              1              1              1              1              1              1
              1              1              1              1              1
           RBDB             15             15             15             15             15             15             15
             15             15             15             15             15
         GEOMOD              0              0              0              0              0              0              0
              0              0              0              0              0
           RBPS             15             15             15             15             15             15             15
             15             15             15             15             15
              W        4.8e-06        4.8e-06        4.8e-06        4.8e-06        4.8e-06        4.8e-06        4.8e-06
        4.8e-06        4.8e-06        4.8e-06        4.8e-06        4.8e-06
       RBODYMOD              1              1              1              1              1              1              1
              1              1              1              1              1
         DELVTO              0              0              0              0              0              0              0
              0              0              0              0              0
             PS              0              0              0              0              0              0              0
              0              0              0              0              0
           RBPB              5              5              5              5              5              5              5
              5              5              5              5              5
            IC2              0              0              0              0              0              0              0
              0              0              0              0              0
            XGW              0              0              0              0              0              0              0
              0              0              0              0              0
          NGCON              1              1              1              1              1              1              1
              1              1              1              1              1
       RGATEMOD              1              1              1              1              1              1              1
              1              1              1              1              1
            IC1              0              0              0              0              0              0              0
              0              0              0              0              0
            IC3              0              0              0              0              0              0              0
              0              0              0              0              0
       TRNQSMOD              0              0              0              0              0              0              0
              0              0              0              0              0
            MIN              0              0              0              0              0              0              0
              0              0              0              0              0
             SD              0              0              0              0              0              0              0
              0              0              0              0              0
       ACNQSMOD              0              0              0              0              0              0              0
              0              0              0              0              0


Number of Capacitor models: 1
          name C level 1 (Capacitor)
          type                
         level               1
            TC2              0
           TNOM             27
            TC1              0
              C              1
             CJ              0
           CJSW              0
         NARROW              0

           DEFW          1e-06

Number of Capacitor instances: 1209
          name              C0             C1            C10           C100          C1000          C1001          C1002
          C1003          C1004          C1005          C1006          C1007          C1008          C1009           C101
          C1010          C1011          C1012          C1013          C1014          C1015          C1016          C1017
          C1018          C1019           C102          C1020          C1021          C1022          C1023          C1024
          C1025          C1026          C1027          C1028          C1029           C103          C1030          C1031
          C1032          C1033          C1034          C1035          C1036          C1037          C1038          C1039
           C104          C1040          C1041          C1042          C1043          C1044          C1045          C1046
          C1047          C1048          C1049           C105          C1050          C1051          C1052          C1053
          C1054          C1055          C1056          C1057          C1058          C1059           C106          C1060
          C1061          C1062          C1063          C1064          C1065          C1066          C1067          C1068
          C1069           C107          C1070          C1071          C1072          C1073          C1074          C1075
          C1076          C1077          C1078          C1079           C108          C1080          C1081          C1082
          C1083          C1084          C1085          C1086          C1087          C1088          C1089           C109
          C1090          C1091          C1092          C1093          C1094          C1095          C1096          C1097
          C1098          C1099            C11           C110          C1100          C1101          C1102          C1103
          C1104          C1105          C1106          C1107          C1108          C1109           C111          C1110
          C1111          C1112          C1113          C1114          C1115          C1116          C1117          C1118
          C1119           C112          C1120          C1121          C1122          C1123          C1124          C1125
          C1126          C1127          C1128          C1129           C113          C1130          C1131          C1132
          C1133          C1134          C1135          C1136          C1137          C1138          C1139           C114
          C1140          C1141          C1142          C1143          C1144          C1145          C1146          C1147
          C1148          C1149           C115          C1150          C1151          C1152          C1153          C1154
          C1155          C1156          C1157          C1158          C1159           C116          C1160          C1161
          C1162          C1163          C1164          C1165          C1166          C1167          C1168          C1169
           C117          C1170          C1171          C1172          C1173          C1174          C1175          C1176
          C1177          C1178          C1179           C118          C1180          C1181          C1182          C1183
          C1184          C1185          C1186          C1187          C1188          C1189           C119          C1190
          C1191          C1192          C1193          C1194          C1195          C1196          C1197          C1198
          C1199            C12           C120          C1200          C1201          C1202          C1203          C1204
          C1205          C1206          C1207           C121           C122           C123           C124           C125
           C126           C127           C128           C129            C13           C130           C131           C132
           C133           C134           C135           C136           C137           C138           C139            C14
           C140           C141           C142           C143           C144           C145           C146           C147
           C148           C149            C15           C150           C151           C152           C153           C154
           C155           C156           C157           C158           C159            C16           C160           C161
           C162           C163           C164           C165           C166           C167           C168           C169
            C17           C170           C171           C172           C173           C174           C175           C176
           C177           C178           C179            C18           C180           C181           C182           C183
           C184           C185           C186           C187           C188           C189            C19           C190
           C191           C192           C193           C194           C195           C196           C197           C198
           C199             C2            C20           C200           C201           C202           C203           C204
           C205           C206           C207           C208           C209            C21           C210           C211
           C212           C213           C214           C215           C216           C217           C218           C219
            C22           C220           C221           C222           C223           C224           C225           C226
           C227           C228           C229            C23           C230           C231           C232           C233
           C234           C235           C236           C237           C238           C239            C24           C240
           C241           C242           C243           C244           C245           C246           C247           C248
           C249            C25           C250           C251           C252           C253           C254           C255
           C256           C257           C258           C259            C26           C260           C261           C262
           C263           C264           C265           C266           C267           C268           C269            C27
           C270           C271           C272           C273           C274           C275           C276           C277
           C278           C279            C28           C280           C281           C282           C283           C284
           C285           C286           C287           C288           C289            C29           C290           C291
           C292           C293           C294           C295           C296           C297           C298           C299
             C3            C30           C300           C301           C302           C303           C304           C305
           C306           C307           C308           C309            C31           C310           C311           C312
           C313           C314           C315           C316           C317           C318           C319            C32
           C320           C321           C322           C323           C324           C325           C326           C327
           C328           C329            C33           C330           C331           C332           C333           C334
           C335           C336           C337           C338           C339            C34           C340           C341
           C342           C343           C344           C345           C346           C347           C348           C349
            C35           C350           C351           C352           C353           C354           C355           C356
           C357           C358           C359            C36           C360           C361           C362           C363
           C364           C365           C366           C367           C368           C369            C37           C370
           C371           C372           C373           C374           C375           C376           C377           C378
           C379            C38           C380           C381           C382           C383           C384           C385
           C386           C387           C388           C389            C39           C390           C391           C392
           C393           C394           C395           C396           C397           C398           C399             C4
            C40           C400           C401           C402           C403           C404           C405           C406
           C407           C408           C409            C41           C410           C411           C412           C413
           C414           C415           C416           C417           C418           C419            C42           C420
           C421           C422           C423           C424           C425           C426           C427           C428
           C429            C43           C430           C431           C432           C433           C434           C435
           C436           C437           C438           C439            C44           C440           C441           C442
           C443           C444           C445           C446           C447           C448           C449            C45
           C450           C451           C452           C453           C454           C455           C456           C457
           C458           C459            C46           C460           C461           C462           C463           C464
           C465           C466           C467           C468           C469            C47           C470           C471
           C472           C473           C474           C475           C476           C477           C478           C479
            C48           C480           C481           C482           C483           C484           C485           C486
           C487           C488           C489            C49           C490           C491           C492           C493
           C494           C495           C496           C497           C498           C499             C5            C50
           C500           C501           C502           C503           C504           C505           C506           C507
           C508           C509            C51           C510           C511           C512           C513           C514
           C515           C516           C517           C518           C519            C52           C520           C521
           C522           C523           C524           C525           C526           C527           C528           C529
            C53           C530           C531           C532           C533           C534           C535           C536
           C537           C538           C539            C54           C540           C541           C542           C543
           C544           C545           C546           C547           C548           C549            C55           C550
           C551           C552           C553           C554           C555           C556           C557           C558
           C559            C56           C560           C561           C562           C563           C564           C565
           C566           C567           C568           C569            C57           C570           C571           C572
           C573           C574           C575           C576           C577           C578           C579            C58
           C580           C581           C582           C583           C584           C585           C586           C587
           C588           C589            C59           C590           C591           C592           C593           C594
           C595           C596           C597           C598           C599             C6            C60           C600
           C601           C602           C603           C604           C605           C606           C607           C608
           C609            C61           C610           C611           C612           C613           C614           C615
           C616           C617           C618           C619            C62           C620           C621           C622
           C623           C624           C625           C626           C627           C628           C629            C63
           C630           C631           C632           C633           C634           C635           C636           C637
           C638           C639            C64           C640           C641           C642           C643           C644
           C645           C646           C647           C648           C649            C65           C650           C651
           C652           C653           C654           C655           C656           C657           C658           C659
            C66           C660           C661           C662           C663           C664           C665           C666
           C667           C668           C669            C67           C670           C671           C672           C673
           C674           C675           C676           C677           C678           C679            C68           C680
           C681           C682           C683           C684           C685           C686           C687           C688
           C689            C69           C690           C691           C692           C693           C694           C695
           C696           C697           C698           C699             C7            C70           C700           C701
           C702           C703           C704           C705           C706           C707           C708           C709
            C71           C710           C711           C712           C713           C714           C715           C716
           C717           C718           C719            C72           C720           C721           C722           C723
           C724           C725           C726           C727           C728           C729            C73           C730
           C731           C732           C733           C734           C735           C736           C737           C738
           C739            C74           C740           C741           C742           C743           C744           C745
           C746           C747           C748           C749            C75           C750           C751           C752
           C753           C754           C755           C756           C757           C758           C759            C76
           C760           C761           C762           C763           C764           C765           C766           C767
           C768           C769            C77           C770           C771           C772           C773           C774
           C775           C776           C777           C778           C779            C78           C780           C781
           C782           C783           C784           C785           C786           C787           C788           C789
            C79           C790           C791           C792           C793           C794           C795           C796
           C797           C798           C799             C8            C80           C800           C801           C802
           C803           C804           C805           C806           C807           C808           C809            C81
           C810           C811           C812           C813           C814           C815           C816           C817
           C818           C819            C82           C820           C821           C822           C823           C824
           C825           C826           C827           C828           C829            C83           C830           C831
           C832           C833           C834           C835           C836           C837           C838           C839
            C84           C840           C841           C842           C843           C844           C845           C846
           C847           C848           C849            C85           C850           C851           C852           C853
           C854           C855           C856           C857           C858           C859            C86           C860
           C861           C862           C863           C864           C865           C866           C867           C868
           C869            C87           C870           C871           C872           C873           C874           C875
           C876           C877           C878           C879            C88           C880           C881           C882
           C883           C884           C885           C886           C887           C888           C889            C89
           C890           C891           C892           C893           C894           C895           C896           C897
           C898           C899             C9            C90           C900           C901           C902           C903
           C904           C905           C906           C907           C908           C909            C91           C910
           C911           C912           C913           C914           C915           C916           C917           C918
           C919            C92           C920           C921           C922           C923           C924           C925
           C926           C927           C928           C929            C93           C930           C931           C932
           C933           C934           C935           C936           C937           C938           C939            C94
           C940           C941           C942           C943           C944           C945           C946           C947
           C948           C949            C95           C950           C951           C952           C953           C954
           C955           C956           C957           C958           C959            C96           C960           C961
           C962           C963           C964           C965           C966           C967           C968           C969
            C97           C970           C971           C972           C973           C974           C975           C976
           C977           C978           C979            C98           C980           C981           C982           C983
           C984           C985           C986           C987           C988           C989            C99           C990
           C991           C992           C993           C994           C995           C996           C997           C998
           C999          CLOAD
         model C level 1 (Capacitor)C level 1 (Capacitor)C level 1 (Capacitor)C level 1 (Capacitor)C level 1 (Capacitor)C level 1 (Capacitor)C level 1 (Capacitor)
C level 1 (Capacitor)C level 1 (Capacitor)C level 1 (Capacitor)C level 1 (Capacitor)C level 1 (Capacitor)C level 1 (Capacitor)C level 1 (Capacitor)C level 1 (Capacitor)
C level 1 (Capacitor)C level 1 (Capacitor)C level 1 (Capacitor)C level 1 (Capacitor)C level 1 (Capacitor)C level 1 (Capacitor)C level 1 (Capacitor)C level 1 (Capacitor)
C level 1 (Capacitor)C level 1 (Capacitor)C level 1 (Capacitor)C level 1 (Capacitor)C level 1 (Capacitor)C level 1 (Capacitor)C level 1 (Capacitor)C level 1 (Capacitor)
C level 1 (Capacitor)C level 1 (Capacitor)C level 1 (Capacitor)C level 1 (Capacitor)C level 1 (Capacitor)C level 1 (Capacitor)C level 1 (Capacitor)C level 1 (Capacitor)
C level 1 (Capacitor)C level 1 (Capacitor)C level 1 (Capacitor)C level 1 (Capacitor)C level 1 (Capacitor)C level 1 (Capacitor)C level 1 (Capacitor)C level 1 (Capacitor)
C level 1 (Capacitor)C level 1 (Capacitor)C level 1 (Capacitor)C level 1 (Capacitor)C level 1 (Capacitor)C level 1 (Capacitor)C level 1 (Capacitor)C level 1 (Capacitor)
C level 1 (Capacitor)C level 1 (Capacitor)C level 1 (Capacitor)C level 1 (Capacitor)C level 1 (Capacitor)C level 1 (Capacitor)C level 1 (Capacitor)C level 1 (Capacitor)
C level 1 (Capacitor)C level 1 (Capacitor)C level 1 (Capacitor)C level 1 (Capacitor)C level 1 (Capacitor)C level 1 (Capacitor)C level 1 (Capacitor)C level 1 (Capacitor)
C level 1 (Capacitor)C level 1 (Capacitor)C level 1 (Capacitor)C level 1 (Capacitor)C level 1 (Capacitor)C level 1 (Capacitor)C level 1 (Capacitor)C level 1 (Capacitor)
C level 1 (Capacitor)C level 1 (Capacitor)C level 1 (Capacitor)C level 1 (Capacitor)C level 1 (Capacitor)C level 1 (Capacitor)C level 1 (Capacitor)C level 1 (Capacitor)
C level 1 (Capacitor)C level 1 (Capacitor)C level 1 (Capacitor)C level 1 (Capacitor)C level 1 (Capacitor)C level 1 (Capacitor)C level 1 (Capacitor)C level 1 (Capacitor)
C level 1 (Capacitor)C level 1 (Capacitor)C level 1 (Capacitor)C level 1 (Capacitor)C level 1 (Capacitor)C level 1 (Capacitor)C level 1 (Capacitor)C level 1 (Capacitor)
C level 1 (Capacitor)C level 1 (Capacitor)C level 1 (Capacitor)C level 1 (Capacitor)C level 1 (Capacitor)C level 1 (Capacitor)C level 1 (Capacitor)C level 1 (Capacitor)
C level 1 (Capacitor)C level 1 (Capacitor)C level 1 (Capacitor)C level 1 (Capacitor)C level 1 (Capacitor)C level 1 (Capacitor)C level 1 (Capacitor)C level 1 (Capacitor)
C level 1 (Capacitor)C level 1 (Capacitor)C level 1 (Capacitor)C level 1 (Capacitor)C level 1 (Capacitor)C level 1 (Capacitor)C level 1 (Capacitor)C level 1 (Capacitor)
C level 1 (Capacitor)C level 1 (Capacitor)C level 1 (Capacitor)C level 1 (Capacitor)C level 1 (Capacitor)C level 1 (Capacitor)C level 1 (Capacitor)C level 1 (Capacitor)
C level 1 (Capacitor)C level 1 (Capacitor)C level 1 (Capacitor)C level 1 (Capacitor)C level 1 (Capacitor)C level 1 (Capacitor)C level 1 (Capacitor)C level 1 (Capacitor)
C level 1 (Capacitor)C level 1 (Capacitor)C level 1 (Capacitor)C level 1 (Capacitor)C level 1 (Capacitor)C level 1 (Capacitor)C level 1 (Capacitor)C level 1 (Capacitor)
C level 1 (Capacitor)C level 1 (Capacitor)C level 1 (Capacitor)C level 1 (Capacitor)C level 1 (Capacitor)C level 1 (Capacitor)C level 1 (Capacitor)C level 1 (Capacitor)
C level 1 (Capacitor)C level 1 (Capacitor)C level 1 (Capacitor)C level 1 (Capacitor)C level 1 (Capacitor)C level 1 (Capacitor)C level 1 (Capacitor)C level 1 (Capacitor)
C level 1 (Capacitor)C level 1 (Capacitor)C level 1 (Capacitor)C level 1 (Capacitor)C level 1 (Capacitor)C level 1 (Capacitor)C level 1 (Capacitor)C level 1 (Capacitor)
C level 1 (Capacitor)C level 1 (Capacitor)C level 1 (Capacitor)C level 1 (Capacitor)C level 1 (Capacitor)C level 1 (Capacitor)C level 1 (Capacitor)C level 1 (Capacitor)
C level 1 (Capacitor)C level 1 (Capacitor)C level 1 (Capacitor)C level 1 (Capacitor)C level 1 (Capacitor)C level 1 (Capacitor)C level 1 (Capacitor)C level 1 (Capacitor)
C level 1 (Capacitor)C level 1 (Capacitor)C level 1 (Capacitor)C level 1 (Capacitor)C level 1 (Capacitor)C level 1 (Capacitor)C level 1 (Capacitor)C level 1 (Capacitor)
C level 1 (Capacitor)C level 1 (Capacitor)C level 1 (Capacitor)C level 1 (Capacitor)C level 1 (Capacitor)C level 1 (Capacitor)C level 1 (Capacitor)C level 1 (Capacitor)
C level 1 (Capacitor)C level 1 (Capacitor)C level 1 (Capacitor)C level 1 (Capacitor)C level 1 (Capacitor)C level 1 (Capacitor)C level 1 (Capacitor)C level 1 (Capacitor)
C level 1 (Capacitor)C level 1 (Capacitor)C level 1 (Capacitor)C level 1 (Capacitor)C level 1 (Capacitor)C level 1 (Capacitor)C level 1 (Capacitor)C level 1 (Capacitor)
C level 1 (Capacitor)C level 1 (Capacitor)C level 1 (Capacitor)C level 1 (Capacitor)C level 1 (Capacitor)C level 1 (Capacitor)C level 1 (Capacitor)C level 1 (Capacitor)
C level 1 (Capacitor)C level 1 (Capacitor)C level 1 (Capacitor)C level 1 (Capacitor)C level 1 (Capacitor)C level 1 (Capacitor)C level 1 (Capacitor)C level 1 (Capacitor)
C level 1 (Capacitor)C level 1 (Capacitor)C level 1 (Capacitor)C level 1 (Capacitor)C level 1 (Capacitor)C level 1 (Capacitor)C level 1 (Capacitor)C level 1 (Capacitor)
C level 1 (Capacitor)C level 1 (Capacitor)C level 1 (Capacitor)C level 1 (Capacitor)C level 1 (Capacitor)C level 1 (Capacitor)C level 1 (Capacitor)C level 1 (Capacitor)
C level 1 (Capacitor)C level 1 (Capacitor)C level 1 (Capacitor)C level 1 (Capacitor)C level 1 (Capacitor)C level 1 (Capacitor)C level 1 (Capacitor)C level 1 (Capacitor)
C level 1 (Capacitor)C level 1 (Capacitor)C level 1 (Capacitor)C level 1 (Capacitor)C level 1 (Capacitor)C level 1 (Capacitor)C level 1 (Capacitor)C level 1 (Capacitor)
C level 1 (Capacitor)C level 1 (Capacitor)C level 1 (Capacitor)C level 1 (Capacitor)C level 1 (Capacitor)C level 1 (Capacitor)C level 1 (Capacitor)C level 1 (Capacitor)
C level 1 (Capacitor)C level 1 (Capacitor)C level 1 (Capacitor)C level 1 (Capacitor)C level 1 (Capacitor)C level 1 (Capacitor)C level 1 (Capacitor)C level 1 (Capacitor)
C level 1 (Capacitor)C level 1 (Capacitor)C level 1 (Capacitor)C level 1 (Capacitor)C level 1 (Capacitor)C level 1 (Capacitor)C level 1 (Capacitor)C level 1 (Capacitor)
C level 1 (Capacitor)C level 1 (Capacitor)C level 1 (Capacitor)C level 1 (Capacitor)C level 1 (Capacitor)C level 1 (Capacitor)C level 1 (Capacitor)C level 1 (Capacitor)
C level 1 (Capacitor)C level 1 (Capacitor)C level 1 (Capacitor)C level 1 (Capacitor)C level 1 (Capacitor)C level 1 (Capacitor)C level 1 (Capacitor)C level 1 (Capacitor)
C level 1 (Capacitor)C level 1 (Capacitor)C level 1 (Capacitor)C level 1 (Capacitor)C level 1 (Capacitor)C level 1 (Capacitor)C level 1 (Capacitor)C level 1 (Capacitor)
C level 1 (Capacitor)C level 1 (Capacitor)C level 1 (Capacitor)C level 1 (Capacitor)C level 1 (Capacitor)C level 1 (Capacitor)C level 1 (Capacitor)C level 1 (Capacitor)
C level 1 (Capacitor)C level 1 (Capacitor)C level 1 (Capacitor)C level 1 (Capacitor)C level 1 (Capacitor)C level 1 (Capacitor)C level 1 (Capacitor)C level 1 (Capacitor)
C level 1 (Capacitor)C level 1 (Capacitor)C level 1 (Capacitor)C level 1 (Capacitor)C level 1 (Capacitor)C level 1 (Capacitor)C level 1 (Capacitor)C level 1 (Capacitor)
C level 1 (Capacitor)C level 1 (Capacitor)C level 1 (Capacitor)C level 1 (Capacitor)C level 1 (Capacitor)C level 1 (Capacitor)C level 1 (Capacitor)C level 1 (Capacitor)
C level 1 (Capacitor)C level 1 (Capacitor)C level 1 (Capacitor)C level 1 (Capacitor)C level 1 (Capacitor)C level 1 (Capacitor)C level 1 (Capacitor)C level 1 (Capacitor)
C level 1 (Capacitor)C level 1 (Capacitor)C level 1 (Capacitor)C level 1 (Capacitor)C level 1 (Capacitor)C level 1 (Capacitor)C level 1 (Capacitor)C level 1 (Capacitor)
C level 1 (Capacitor)C level 1 (Capacitor)C level 1 (Capacitor)C level 1 (Capacitor)C level 1 (Capacitor)C level 1 (Capacitor)C level 1 (Capacitor)C level 1 (Capacitor)
C level 1 (Capacitor)C level 1 (Capacitor)C level 1 (Capacitor)C level 1 (Capacitor)C level 1 (Capacitor)C level 1 (Capacitor)C level 1 (Capacitor)C level 1 (Capacitor)
C level 1 (Capacitor)C level 1 (Capacitor)C level 1 (Capacitor)C level 1 (Capacitor)C level 1 (Capacitor)C level 1 (Capacitor)C level 1 (Capacitor)C level 1 (Capacitor)
C level 1 (Capacitor)C level 1 (Capacitor)C level 1 (Capacitor)C level 1 (Capacitor)C level 1 (Capacitor)C level 1 (Capacitor)C level 1 (Capacitor)C level 1 (Capacitor)
C level 1 (Capacitor)C level 1 (Capacitor)C level 1 (Capacitor)C level 1 (Capacitor)C level 1 (Capacitor)C level 1 (Capacitor)C level 1 (Capacitor)C level 1 (Capacitor)
C level 1 (Capacitor)C level 1 (Capacitor)C level 1 (Capacitor)C level 1 (Capacitor)C level 1 (Capacitor)C level 1 (Capacitor)C level 1 (Capacitor)C level 1 (Capacitor)
C level 1 (Capacitor)C level 1 (Capacitor)C level 1 (Capacitor)C level 1 (Capacitor)C level 1 (Capacitor)C level 1 (Capacitor)C level 1 (Capacitor)C level 1 (Capacitor)
C level 1 (Capacitor)C level 1 (Capacitor)C level 1 (Capacitor)C level 1 (Capacitor)C level 1 (Capacitor)C level 1 (Capacitor)C level 1 (Capacitor)C level 1 (Capacitor)
C level 1 (Capacitor)C level 1 (Capacitor)C level 1 (Capacitor)C level 1 (Capacitor)C level 1 (Capacitor)C level 1 (Capacitor)C level 1 (Capacitor)C level 1 (Capacitor)
C level 1 (Capacitor)C level 1 (Capacitor)C level 1 (Capacitor)C level 1 (Capacitor)C level 1 (Capacitor)C level 1 (Capacitor)C level 1 (Capacitor)C level 1 (Capacitor)
C level 1 (Capacitor)C level 1 (Capacitor)C level 1 (Capacitor)C level 1 (Capacitor)C level 1 (Capacitor)C level 1 (Capacitor)C level 1 (Capacitor)C level 1 (Capacitor)
C level 1 (Capacitor)C level 1 (Capacitor)C level 1 (Capacitor)C level 1 (Capacitor)C level 1 (Capacitor)C level 1 (Capacitor)C level 1 (Capacitor)C level 1 (Capacitor)
C level 1 (Capacitor)C level 1 (Capacitor)C level 1 (Capacitor)C level 1 (Capacitor)C level 1 (Capacitor)C level 1 (Capacitor)C level 1 (Capacitor)C level 1 (Capacitor)
C level 1 (Capacitor)C level 1 (Capacitor)C level 1 (Capacitor)C level 1 (Capacitor)C level 1 (Capacitor)C level 1 (Capacitor)C level 1 (Capacitor)C level 1 (Capacitor)
C level 1 (Capacitor)C level 1 (Capacitor)C level 1 (Capacitor)C level 1 (Capacitor)C level 1 (Capacitor)C level 1 (Capacitor)C level 1 (Capacitor)C level 1 (Capacitor)
C level 1 (Capacitor)C level 1 (Capacitor)C level 1 (Capacitor)C level 1 (Capacitor)C level 1 (Capacitor)C level 1 (Capacitor)C level 1 (Capacitor)C level 1 (Capacitor)
C level 1 (Capacitor)C level 1 (Capacitor)C level 1 (Capacitor)C level 1 (Capacitor)C level 1 (Capacitor)C level 1 (Capacitor)C level 1 (Capacitor)C level 1 (Capacitor)
C level 1 (Capacitor)C level 1 (Capacitor)C level 1 (Capacitor)C level 1 (Capacitor)C level 1 (Capacitor)C level 1 (Capacitor)C level 1 (Capacitor)C level 1 (Capacitor)
C level 1 (Capacitor)C level 1 (Capacitor)C level 1 (Capacitor)C level 1 (Capacitor)C level 1 (Capacitor)C level 1 (Capacitor)C level 1 (Capacitor)C level 1 (Capacitor)
C level 1 (Capacitor)C level 1 (Capacitor)C level 1 (Capacitor)C level 1 (Capacitor)C level 1 (Capacitor)C level 1 (Capacitor)C level 1 (Capacitor)C level 1 (Capacitor)
C level 1 (Capacitor)C level 1 (Capacitor)C level 1 (Capacitor)C level 1 (Capacitor)C level 1 (Capacitor)C level 1 (Capacitor)C level 1 (Capacitor)C level 1 (Capacitor)
C level 1 (Capacitor)C level 1 (Capacitor)C level 1 (Capacitor)C level 1 (Capacitor)C level 1 (Capacitor)C level 1 (Capacitor)C level 1 (Capacitor)C level 1 (Capacitor)
C level 1 (Capacitor)C level 1 (Capacitor)C level 1 (Capacitor)C level 1 (Capacitor)C level 1 (Capacitor)C level 1 (Capacitor)C level 1 (Capacitor)C level 1 (Capacitor)
C level 1 (Capacitor)C level 1 (Capacitor)C level 1 (Capacitor)C level 1 (Capacitor)C level 1 (Capacitor)C level 1 (Capacitor)C level 1 (Capacitor)C level 1 (Capacitor)
C level 1 (Capacitor)C level 1 (Capacitor)C level 1 (Capacitor)C level 1 (Capacitor)C level 1 (Capacitor)C level 1 (Capacitor)C level 1 (Capacitor)C level 1 (Capacitor)
C level 1 (Capacitor)C level 1 (Capacitor)C level 1 (Capacitor)C level 1 (Capacitor)C level 1 (Capacitor)C level 1 (Capacitor)C level 1 (Capacitor)C level 1 (Capacitor)
C level 1 (Capacitor)C level 1 (Capacitor)C level 1 (Capacitor)C level 1 (Capacitor)C level 1 (Capacitor)C level 1 (Capacitor)C level 1 (Capacitor)C level 1 (Capacitor)
C level 1 (Capacitor)C level 1 (Capacitor)C level 1 (Capacitor)C level 1 (Capacitor)C level 1 (Capacitor)C level 1 (Capacitor)C level 1 (Capacitor)C level 1 (Capacitor)
C level 1 (Capacitor)C level 1 (Capacitor)C level 1 (Capacitor)C level 1 (Capacitor)C level 1 (Capacitor)C level 1 (Capacitor)C level 1 (Capacitor)C level 1 (Capacitor)
C level 1 (Capacitor)C level 1 (Capacitor)C level 1 (Capacitor)C level 1 (Capacitor)C level 1 (Capacitor)C level 1 (Capacitor)C level 1 (Capacitor)C level 1 (Capacitor)
C level 1 (Capacitor)C level 1 (Capacitor)C level 1 (Capacitor)C level 1 (Capacitor)C level 1 (Capacitor)C level 1 (Capacitor)C level 1 (Capacitor)C level 1 (Capacitor)
C level 1 (Capacitor)C level 1 (Capacitor)C level 1 (Capacitor)C level 1 (Capacitor)C level 1 (Capacitor)C level 1 (Capacitor)C level 1 (Capacitor)C level 1 (Capacitor)
C level 1 (Capacitor)C level 1 (Capacitor)C level 1 (Capacitor)C level 1 (Capacitor)C level 1 (Capacitor)C level 1 (Capacitor)C level 1 (Capacitor)C level 1 (Capacitor)
C level 1 (Capacitor)C level 1 (Capacitor)C level 1 (Capacitor)C level 1 (Capacitor)C level 1 (Capacitor)C level 1 (Capacitor)C level 1 (Capacitor)C level 1 (Capacitor)
C level 1 (Capacitor)C level 1 (Capacitor)C level 1 (Capacitor)C level 1 (Capacitor)C level 1 (Capacitor)C level 1 (Capacitor)C level 1 (Capacitor)C level 1 (Capacitor)
C level 1 (Capacitor)C level 1 (Capacitor)C level 1 (Capacitor)C level 1 (Capacitor)C level 1 (Capacitor)C level 1 (Capacitor)C level 1 (Capacitor)C level 1 (Capacitor)
C level 1 (Capacitor)C level 1 (Capacitor)C level 1 (Capacitor)C level 1 (Capacitor)C level 1 (Capacitor)C level 1 (Capacitor)C level 1 (Capacitor)C level 1 (Capacitor)
C level 1 (Capacitor)C level 1 (Capacitor)C level 1 (Capacitor)C level 1 (Capacitor)C level 1 (Capacitor)C level 1 (Capacitor)C level 1 (Capacitor)C level 1 (Capacitor)
C level 1 (Capacitor)C level 1 (Capacitor)C level 1 (Capacitor)C level 1 (Capacitor)C level 1 (Capacitor)C level 1 (Capacitor)C level 1 (Capacitor)C level 1 (Capacitor)
C level 1 (Capacitor)C level 1 (Capacitor)C level 1 (Capacitor)C level 1 (Capacitor)C level 1 (Capacitor)C level 1 (Capacitor)C level 1 (Capacitor)C level 1 (Capacitor)
C level 1 (Capacitor)C level 1 (Capacitor)C level 1 (Capacitor)C level 1 (Capacitor)C level 1 (Capacitor)C level 1 (Capacitor)C level 1 (Capacitor)C level 1 (Capacitor)
C level 1 (Capacitor)C level 1 (Capacitor)C level 1 (Capacitor)C level 1 (Capacitor)C level 1 (Capacitor)C level 1 (Capacitor)C level 1 (Capacitor)C level 1 (Capacitor)
C level 1 (Capacitor)C level 1 (Capacitor)C level 1 (Capacitor)C level 1 (Capacitor)C level 1 (Capacitor)C level 1 (Capacitor)C level 1 (Capacitor)C level 1 (Capacitor)
C level 1 (Capacitor)C level 1 (Capacitor)C level 1 (Capacitor)C level 1 (Capacitor)C level 1 (Capacitor)C level 1 (Capacitor)C level 1 (Capacitor)C level 1 (Capacitor)
[...]
             50             50             50             50             50             50             50              8
              8             50             50             50             50             50             50             50
             50             50             50            1.2             50           1.44            3.2            3.2
           0.32            3.2            3.2           0.32           1.44           1.44              8            3.2
            3.2           0.32            3.2              1           1.44            3.2            3.2           0.32
           1.44              8           1.44            3.2            3.2           0.32            3.2              1
           1.44            3.2            3.2            3.2            4.4           0.48           1.44           1.44
            3.2            3.2           0.32            3.2           0.16           1.44           1.44            3.6
            3.2            3.2            3.2           0.48           1.44           1.44            3.2            3.2
           0.32            3.2              8            3.2            3.2           0.48           1.44           1.44
            3.2            3.2            3.2           0.48           1.44              8           1.44            3.2
           0.16            3.2           0.16            3.2           0.16           1.44           1.44            3.2
            0.8            3.2            3.2           0.48           1.44           1.44            3.2            3.2
            3.2           0.48           1.44              8           1.44            3.2            3.2            3.2
           0.48            3.2            3.2            3.2           0.48           1.44            0.8            0.4
           1.44            3.2            3.2            3.2           0.48           1.44           1.44            3.2
            3.2            3.2            4.2           0.48           1.44            1.6            3.2            3.2
           0.32            3.2            3.2            3.2           0.48              8           1.44           1.44
            3.2            3.2            3.2           0.48            1.6            3.2              1            3.2
            4.6              1            3.2              1            3.2              1           1.44            3.2
            3.2           0.32            3.2              8           0.16           1.44            3.2              1
            3.2              1           1.44            3.2            3.2            3.2              8           0.48
           1.44            3.2              1            3.2              1            1.6            3.2            3.2
            3.2            4.4           0.48           1.44            1.6            3.2            3.2            3.2
           0.48           1.44           1.44            3.2              8            3.2            3.2           0.48
           1.44             50             50             50             50             50             50              4
             50             50             50             50             50             50             50             50
             50             50              8             50             50             50             50             50
             50             50             50             50             50              8            0.4             50
             50             50             50             50             50             50             50             50
             50              8             50             50             50             50             50             50
             50             50             50             50            4.6             50             50            1.2
            2.4            2.4            2.4            2.4            2.4            2.4            2.4            4.2
            2.4            2.4            2.4            1.2            1.2            2.4            2.4            2.4
            2.4            2.4              8            2.4            2.4            2.4            2.4            1.2
            1.2            2.4            2.4            2.4            2.4            0.4            1.2            1.2
            2.4            2.4            1.2            1.2            2.4            2.4            1.2            1.2
              8            2.4            2.4            2.4            2.4            1.2            1.2            2.4
            2.4            2.4            2.4              8            2.4            2.4            1.2            1.2
            2.4            2.4            1.2             50             50             50            4.4             50
             50             50             50             50             50             50             50             50
             50            3.6             50            0.8            1.6            1.6           0.16            0.8
             50             50             50             50              8              8             50             50
             50             50             50             50             50             50             50             50
            0.4             50             50             50             50             50             50             50
             50             50             50              8             50             50             50             50
             50             50             50             50             50             50              8             50
             50             50             50             50             50             50             50             50
             50              8            1.2              8              8              8            4.8              8
            3.6              8              8            0.8              8            0.4            4.2              8
            4.6              8              8              8            4.4              8              4              8
            0.4              8            4.6            4.2              8          0.001          0.001          0.001
          0.001          0.001          0.001
            TC1              0              0              0              0              0              0              0
              0              0              0              0              0              0              0              0
              0              0              0              0              0              0              0              0
              0              0              0              0              0              0              0              0
              0              0              0              0              0              0              0              0
              0              0              0              0              0              0              0              0
              0              0              0              0              0              0              0              0
              0              0              0              0              0              0              0              0
              0              0              0              0              0              0              0              0
              0              0              0              0              0              0              0              0
              0              0              0              0              0              0              0              0
              0              0              0              0              0              0              0              0
              0              0              0              0              0              0              0              0
              0              0              0              0              0              0              0              0
              0              0              0              0              0              0              0              0
              0              0              0              0              0              0              0              0
              0              0              0              0              0              0              0              0
              0              0              0              0              0              0              0              0
              0              0              0              0              0              0              0              0
              0              0              0              0              0              0              0              0
              0              0              0              0              0              0              0              0
              0              0              0              0              0              0              0              0
              0              0              0              0              0              0              0              0
              0              0              0              0              0              0              0              0
              0              0              0              0              0              0              0              0
              0              0              0              0              0              0              0              0
              0              0              0              0              0              0              0              0
              0              0              0              0              0              0              0              0
              0              0              0              0              0              0              0              0
              0              0              0              0              0              0              0              0
              0              0              0              0              0              0              0              0
              0              0              0              0              0              0              0              0
              0              0              0              0              0              0              0              0
              0              0              0              0              0              0              0              0
              0              0              0              0              0              0              0              0
              0              0              0              0              0              0              0              0
              0              0              0              0              0              0              0              0
              0              0              0              0              0              0              0              0
              0              0              0              0              0              0              0              0
              0              0              0              0              0              0              0              0
              0              0              0              0              0              0              0              0
              0              0              0              0              0              0              0              0
              0              0              0              0              0              0              0              0
              0              0              0              0              0              0              0              0
              0              0              0              0              0              0              0              0
              0              0              0              0              0              0              0              0
              0              0              0              0              0              0              0              0
              0              0              0              0              0              0              0              0
              0              0              0              0              0              0              0              0
              0              0              0              0              0              0              0              0
              0              0              0              0              0              0              0              0
              0              0              0              0              0              0              0              0
              0              0              0              0              0              0              0              0
              0              0              0              0              0              0              0              0
              0              0              0              0              0              0              0              0
              0              0              0              0              0              0              0              0
              0              0              0              0              0              0              0              0
              0              0              0              0              0              0              0              0
              0              0              0              0              0              0              0              0
              0              0              0              0              0              0              0              0
              0              0              0              0              0              0              0              0
              0              0              0              0              0              0              0              0
              0              0              0              0              0              0              0              0
              0              0              0              0              0              0              0              0
              0              0              0              0              0              0              0              0
              0              0              0              0              0              0              0              0
              0              0              0              0              0              0              0              0
              0              0              0              0              0              0              0              0
              0              0              0              0              0              0              0              0
              0              0              0              0              0              0              0              0
              0              0              0              0              0              0              0              0
              0              0              0              0              0              0              0              0
              0              0              0              0              0              0              0              0
              0              0              0              0              0              0              0              0
              0              0              0              0              0              0              0              0
              0              0              0              0              0              0              0              0
              0              0              0              0              0              0              0              0
              0              0              0              0              0              0              0              0
              0              0              0              0              0              0              0              0
              0              0              0              0              0              0              0              0
              0              0              0              0              0              0              0              0
              0              0              0              0              0              0              0              0
              0              0              0              0              0              0              0              0
              0              0              0              0              0              0              0              0
              0              0              0              0              0              0              0              0
              0              0              0              0              0              0              0              0
              0              0              0              0              0              0              0              0
              0              0              0              0              0              0              0              0
              0              0              0              0              0              0              0              0
              0              0              0              0              0              0              0              0
              0              0              0              0              0              0              0              0
              0              0              0              0              0              0              0              0
              0              0              0              0              0              0              0              0
              0              0              0

------------------------------------------------------------

***** Solution Summary *****
	Number Successful Steps Taken:		1101
	Number Failed Steps Attempted:		0
	Number Jacobians Evaluated:		7
	Number Iteration Matrix Factorizations:	0
	Number Linear Solves:			7
	Number Failed Linear Solves:		0
	Number Residual Evaluations:		8
	Number Nonlinear Convergence Failures:	0
	Total Residual Load Time:		0.00107431 seconds
	Total Jacobian Load Time:		0.00096035 seconds
	Total Linear Solution Time:		0.00442839 seconds


***** Total Simulation Solvers Run Time: 2.30664 seconds
***** Total Elapsed Run Time:            2.4132 seconds
*****
***** End of Xyce(TM) Simulation
*****

Timing summary of 1 processor
                 Stats                   Count       CPU Time              Wall Time
---------------------------------------- ----- --------------------- ---------------------
Xyce                                         1        2.345 (100.0%)        2.413 (100.0%)
  Analysis                                   1        2.238 (95.45%)        2.307 (95.58%)
    AC                                       1        2.238 (95.44%)        2.304 (95.45%)
      Residual                               8        0.001 ( 0.05%)        0.001 ( 0.05%)
      Jacobian                               7        0.001 ( 0.04%)        0.001 ( 0.04%)
      Linear Solve                           7        0.004 ( 0.19%)        0.004 ( 0.18%)
      Nonlinear Solve                     1101        1.700 (72.51%)        1.751 (72.55%)
        Linear Solve                      1101        1.695 (72.29%)        1.748 (72.42%)
  Netlist Import                             1        0.093 ( 3.95%)        0.093 ( 3.84%)
    Parse Context                            1        0.009 ( 0.37%)        0.009 ( 0.36%)
    Distribute Devices                       1        0.068 ( 2.91%)        0.068 ( 2.82%)
    Verify Devices                           1        0.000 (<0.01%)        0.000 (<0.01%)
    Instantiate                              1        0.014 ( 0.62%)        0.014 ( 0.60%)
  Late Initialization                        1        0.013 ( 0.55%)        0.013 ( 0.53%)
    Global Indices                           1        0.006 ( 0.27%)        0.006 ( 0.26%)
  Setup Matrix Structure                     1        0.005 ( 0.19%)        0.005 ( 0.19%)

